*SPEF "ieee 1481-1999"
*DESIGN "trafficlight_controller"
*DATE "11:11:11 Fri 11 11, 1111"
*VENDOR "OpenRCX"
*PROGRAM "Parallel Extraction"
*VERSION "1.0"
*DESIGN_FLOW "NAME_SCOPE LOCAL" "PIN_CAP NONE"
*DIVIDER /
*DELIMITER :
*BUS_DELIMITER []
*T_UNIT 1 NS
*C_UNIT 1 PF
*R_UNIT 1 OHM
*L_UNIT 1 HENRY

*NAME_MAP
*3 clear
*4 clock
*5 hwy[0]
*6 hwy[1]
*7 road[0]
*8 road[1]
*9 x
*10 _00_
*11 _01_
*12 _02_
*13 _03_
*14 _04_
*15 _05_
*16 _06_
*17 _07_
*18 _08_
*19 _09_
*20 _10_
*21 _11_
*22 _12_
*23 _13_
*24 _14_
*25 _15_
*26 _16_
*27 _17_
*28 _18_
*29 _19_
*30 _20_
*31 _21_
*32 _22_
*33 _23_
*34 _24_
*35 _25_
*36 _26_
*37 _27_
*38 _28_
*39 delay\[0\]
*40 delay\[1\]
*41 delay\[2\]
*42 net1
*43 net2
*44 net3
*45 net4
*46 net5
*47 net6
*48 net7
*49 state\[0\]
*50 state\[1\]
*51 state\[2\]
*52 state\[3\]
*53 state\[4\]
*54 FILLER_0_0_105
*55 FILLER_0_0_113
*56 FILLER_0_0_125
*57 FILLER_0_0_137
*58 FILLER_0_0_141
*59 FILLER_0_0_153
*60 FILLER_0_0_165
*61 FILLER_0_0_169
*62 FILLER_0_0_181
*63 FILLER_0_0_21
*64 FILLER_0_0_27
*65 FILLER_0_0_29
*66 FILLER_0_0_41
*67 FILLER_0_0_53
*68 FILLER_0_0_57
*69 FILLER_0_0_69
*70 FILLER_0_0_81
*71 FILLER_0_0_85
*72 FILLER_0_0_9
*73 FILLER_0_0_97
*74 FILLER_0_10_109
*75 FILLER_0_10_121
*76 FILLER_0_10_133
*77 FILLER_0_10_139
*78 FILLER_0_10_141
*79 FILLER_0_10_15
*80 FILLER_0_10_153
*81 FILLER_0_10_165
*82 FILLER_0_10_177
*83 FILLER_0_10_189
*84 FILLER_0_10_27
*85 FILLER_0_10_29
*86 FILLER_0_10_3
*87 FILLER_0_10_41
*88 FILLER_0_10_53
*89 FILLER_0_10_65
*90 FILLER_0_10_77
*91 FILLER_0_10_83
*92 FILLER_0_10_85
*93 FILLER_0_10_97
*94 FILLER_0_11_105
*95 FILLER_0_11_111
*96 FILLER_0_11_113
*97 FILLER_0_11_125
*98 FILLER_0_11_137
*99 FILLER_0_11_149
*100 FILLER_0_11_15
*101 FILLER_0_11_161
*102 FILLER_0_11_167
*103 FILLER_0_11_169
*104 FILLER_0_11_181
*105 FILLER_0_11_189
*106 FILLER_0_11_27
*107 FILLER_0_11_3
*108 FILLER_0_11_39
*109 FILLER_0_11_51
*110 FILLER_0_11_55
*111 FILLER_0_11_57
*112 FILLER_0_11_69
*113 FILLER_0_11_81
*114 FILLER_0_11_93
*115 FILLER_0_12_109
*116 FILLER_0_12_121
*117 FILLER_0_12_133
*118 FILLER_0_12_139
*119 FILLER_0_12_141
*120 FILLER_0_12_15
*121 FILLER_0_12_153
*122 FILLER_0_12_165
*123 FILLER_0_12_177
*124 FILLER_0_12_189
*125 FILLER_0_12_27
*126 FILLER_0_12_29
*127 FILLER_0_12_3
*128 FILLER_0_12_41
*129 FILLER_0_12_53
*130 FILLER_0_12_65
*131 FILLER_0_12_77
*132 FILLER_0_12_83
*133 FILLER_0_12_85
*134 FILLER_0_12_97
*135 FILLER_0_13_105
*136 FILLER_0_13_111
*137 FILLER_0_13_113
*138 FILLER_0_13_125
*139 FILLER_0_13_137
*140 FILLER_0_13_149
*141 FILLER_0_13_15
*142 FILLER_0_13_161
*143 FILLER_0_13_167
*144 FILLER_0_13_169
*145 FILLER_0_13_181
*146 FILLER_0_13_189
*147 FILLER_0_13_27
*148 FILLER_0_13_3
*149 FILLER_0_13_39
*150 FILLER_0_13_51
*151 FILLER_0_13_55
*152 FILLER_0_13_57
*153 FILLER_0_13_69
*154 FILLER_0_13_81
*155 FILLER_0_13_93
*156 FILLER_0_14_109
*157 FILLER_0_14_121
*158 FILLER_0_14_133
*159 FILLER_0_14_139
*160 FILLER_0_14_141
*161 FILLER_0_14_15
*162 FILLER_0_14_153
*163 FILLER_0_14_165
*164 FILLER_0_14_177
*165 FILLER_0_14_189
*166 FILLER_0_14_27
*167 FILLER_0_14_29
*168 FILLER_0_14_3
*169 FILLER_0_14_41
*170 FILLER_0_14_53
*171 FILLER_0_14_59
*172 FILLER_0_14_76
*173 FILLER_0_14_85
*174 FILLER_0_14_97
*175 FILLER_0_15_110
*176 FILLER_0_15_113
*177 FILLER_0_15_125
*178 FILLER_0_15_137
*179 FILLER_0_15_149
*180 FILLER_0_15_15
*181 FILLER_0_15_161
*182 FILLER_0_15_167
*183 FILLER_0_15_169
*184 FILLER_0_15_181
*185 FILLER_0_15_189
*186 FILLER_0_15_27
*187 FILLER_0_15_3
*188 FILLER_0_15_39
*189 FILLER_0_15_51
*190 FILLER_0_15_55
*191 FILLER_0_15_57
*192 FILLER_0_15_64
*193 FILLER_0_15_86
*194 FILLER_0_15_98
*195 FILLER_0_16_105
*196 FILLER_0_16_117
*197 FILLER_0_16_129
*198 FILLER_0_16_137
*199 FILLER_0_16_141
*200 FILLER_0_16_15
*201 FILLER_0_16_153
*202 FILLER_0_16_165
*203 FILLER_0_16_177
*204 FILLER_0_16_189
*205 FILLER_0_16_27
*206 FILLER_0_16_29
*207 FILLER_0_16_3
*208 FILLER_0_16_37
*209 FILLER_0_16_43
*210 FILLER_0_16_55
*211 FILLER_0_16_62
*212 FILLER_0_16_71
*213 FILLER_0_16_83
*214 FILLER_0_16_85
*215 FILLER_0_17_111
*216 FILLER_0_17_130
*217 FILLER_0_17_142
*218 FILLER_0_17_154
*219 FILLER_0_17_166
*220 FILLER_0_17_169
*221 FILLER_0_17_181
*222 FILLER_0_17_189
*223 FILLER_0_17_21
*224 FILLER_0_17_33
*225 FILLER_0_17_45
*226 FILLER_0_17_57
*227 FILLER_0_17_67
*228 FILLER_0_17_75
*229 FILLER_0_17_83
*230 FILLER_0_17_9
*231 FILLER_0_17_99
*232 FILLER_0_18_107
*233 FILLER_0_18_115
*234 FILLER_0_18_121
*235 FILLER_0_18_133
*236 FILLER_0_18_139
*237 FILLER_0_18_141
*238 FILLER_0_18_15
*239 FILLER_0_18_153
*240 FILLER_0_18_165
*241 FILLER_0_18_177
*242 FILLER_0_18_189
*243 FILLER_0_18_27
*244 FILLER_0_18_29
*245 FILLER_0_18_3
*246 FILLER_0_18_41
*247 FILLER_0_18_47
*248 FILLER_0_18_63
*249 FILLER_0_18_74
*250 FILLER_0_18_80
*251 FILLER_0_18_95
*252 FILLER_0_19_109
*253 FILLER_0_19_113
*254 FILLER_0_19_125
*255 FILLER_0_19_137
*256 FILLER_0_19_149
*257 FILLER_0_19_15
*258 FILLER_0_19_161
*259 FILLER_0_19_167
*260 FILLER_0_19_169
*261 FILLER_0_19_181
*262 FILLER_0_19_189
*263 FILLER_0_19_27
*264 FILLER_0_19_3
*265 FILLER_0_19_39
*266 FILLER_0_19_46
*267 FILLER_0_19_54
*268 FILLER_0_19_66
*269 FILLER_0_19_78
*270 FILLER_0_19_90
*271 FILLER_0_19_96
*272 FILLER_0_1_10
*273 FILLER_0_1_105
*274 FILLER_0_1_111
*275 FILLER_0_1_113
*276 FILLER_0_1_125
*277 FILLER_0_1_137
*278 FILLER_0_1_149
*279 FILLER_0_1_161
*280 FILLER_0_1_167
*281 FILLER_0_1_169
*282 FILLER_0_1_181
*283 FILLER_0_1_189
*284 FILLER_0_1_22
*285 FILLER_0_1_3
*286 FILLER_0_1_34
*287 FILLER_0_1_46
*288 FILLER_0_1_54
*289 FILLER_0_1_57
*290 FILLER_0_1_69
*291 FILLER_0_1_81
*292 FILLER_0_1_93
*293 FILLER_0_20_125
*294 FILLER_0_20_137
*295 FILLER_0_20_141
*296 FILLER_0_20_15
*297 FILLER_0_20_153
*298 FILLER_0_20_165
*299 FILLER_0_20_177
*300 FILLER_0_20_189
*301 FILLER_0_20_27
*302 FILLER_0_20_29
*303 FILLER_0_20_3
*304 FILLER_0_20_41
*305 FILLER_0_20_53
*306 FILLER_0_20_65
*307 FILLER_0_20_69
*308 FILLER_0_20_83
*309 FILLER_0_21_107
*310 FILLER_0_21_111
*311 FILLER_0_21_113
*312 FILLER_0_21_125
*313 FILLER_0_21_137
*314 FILLER_0_21_149
*315 FILLER_0_21_15
*316 FILLER_0_21_161
*317 FILLER_0_21_167
*318 FILLER_0_21_169
*319 FILLER_0_21_181
*320 FILLER_0_21_189
*321 FILLER_0_21_27
*322 FILLER_0_21_3
*323 FILLER_0_21_39
*324 FILLER_0_21_51
*325 FILLER_0_21_55
*326 FILLER_0_21_57
*327 FILLER_0_21_91
*328 FILLER_0_21_99
*329 FILLER_0_22_109
*330 FILLER_0_22_124
*331 FILLER_0_22_136
*332 FILLER_0_22_141
*333 FILLER_0_22_15
*334 FILLER_0_22_153
*335 FILLER_0_22_165
*336 FILLER_0_22_177
*337 FILLER_0_22_185
*338 FILLER_0_22_23
*339 FILLER_0_22_29
*340 FILLER_0_22_3
*341 FILLER_0_22_41
*342 FILLER_0_22_53
*343 FILLER_0_22_65
*344 FILLER_0_22_77
*345 FILLER_0_22_83
*346 FILLER_0_22_85
*347 FILLER_0_23_105
*348 FILLER_0_23_111
*349 FILLER_0_23_113
*350 FILLER_0_23_125
*351 FILLER_0_23_131
*352 FILLER_0_23_135
*353 FILLER_0_23_147
*354 FILLER_0_23_15
*355 FILLER_0_23_159
*356 FILLER_0_23_167
*357 FILLER_0_23_169
*358 FILLER_0_23_181
*359 FILLER_0_23_189
*360 FILLER_0_23_19
*361 FILLER_0_23_23
*362 FILLER_0_23_3
*363 FILLER_0_23_35
*364 FILLER_0_23_47
*365 FILLER_0_23_55
*366 FILLER_0_23_57
*367 FILLER_0_23_69
*368 FILLER_0_23_81
*369 FILLER_0_23_93
*370 FILLER_0_24_109
*371 FILLER_0_24_121
*372 FILLER_0_24_133
*373 FILLER_0_24_139
*374 FILLER_0_24_141
*375 FILLER_0_24_15
*376 FILLER_0_24_153
*377 FILLER_0_24_165
*378 FILLER_0_24_177
*379 FILLER_0_24_189
*380 FILLER_0_24_27
*381 FILLER_0_24_29
*382 FILLER_0_24_3
*383 FILLER_0_24_41
*384 FILLER_0_24_53
*385 FILLER_0_24_65
*386 FILLER_0_24_77
*387 FILLER_0_24_83
*388 FILLER_0_24_85
*389 FILLER_0_24_97
*390 FILLER_0_25_105
*391 FILLER_0_25_111
*392 FILLER_0_25_113
*393 FILLER_0_25_125
*394 FILLER_0_25_137
*395 FILLER_0_25_149
*396 FILLER_0_25_15
*397 FILLER_0_25_161
*398 FILLER_0_25_167
*399 FILLER_0_25_169
*400 FILLER_0_25_181
*401 FILLER_0_25_189
*402 FILLER_0_25_27
*403 FILLER_0_25_3
*404 FILLER_0_25_39
*405 FILLER_0_25_51
*406 FILLER_0_25_55
*407 FILLER_0_25_57
*408 FILLER_0_25_69
*409 FILLER_0_25_81
*410 FILLER_0_25_93
*411 FILLER_0_26_109
*412 FILLER_0_26_121
*413 FILLER_0_26_133
*414 FILLER_0_26_139
*415 FILLER_0_26_141
*416 FILLER_0_26_15
*417 FILLER_0_26_153
*418 FILLER_0_26_165
*419 FILLER_0_26_177
*420 FILLER_0_26_189
*421 FILLER_0_26_27
*422 FILLER_0_26_29
*423 FILLER_0_26_3
*424 FILLER_0_26_41
*425 FILLER_0_26_53
*426 FILLER_0_26_65
*427 FILLER_0_26_77
*428 FILLER_0_26_83
*429 FILLER_0_26_85
*430 FILLER_0_26_97
*431 FILLER_0_27_109
*432 FILLER_0_27_113
*433 FILLER_0_27_125
*434 FILLER_0_27_137
*435 FILLER_0_27_141
*436 FILLER_0_27_149
*437 FILLER_0_27_15
*438 FILLER_0_27_161
*439 FILLER_0_27_167
*440 FILLER_0_27_169
*441 FILLER_0_27_181
*442 FILLER_0_27_189
*443 FILLER_0_27_23
*444 FILLER_0_27_27
*445 FILLER_0_27_29
*446 FILLER_0_27_3
*447 FILLER_0_27_41
*448 FILLER_0_27_53
*449 FILLER_0_27_57
*450 FILLER_0_27_69
*451 FILLER_0_27_81
*452 FILLER_0_27_85
*453 FILLER_0_27_97
*454 FILLER_0_2_109
*455 FILLER_0_2_121
*456 FILLER_0_2_133
*457 FILLER_0_2_139
*458 FILLER_0_2_141
*459 FILLER_0_2_15
*460 FILLER_0_2_153
*461 FILLER_0_2_165
*462 FILLER_0_2_177
*463 FILLER_0_2_189
*464 FILLER_0_2_27
*465 FILLER_0_2_29
*466 FILLER_0_2_3
*467 FILLER_0_2_41
*468 FILLER_0_2_53
*469 FILLER_0_2_65
*470 FILLER_0_2_77
*471 FILLER_0_2_83
*472 FILLER_0_2_85
*473 FILLER_0_2_97
*474 FILLER_0_3_105
*475 FILLER_0_3_111
*476 FILLER_0_3_113
*477 FILLER_0_3_125
*478 FILLER_0_3_137
*479 FILLER_0_3_149
*480 FILLER_0_3_15
*481 FILLER_0_3_161
*482 FILLER_0_3_167
*483 FILLER_0_3_169
*484 FILLER_0_3_181
*485 FILLER_0_3_189
*486 FILLER_0_3_27
*487 FILLER_0_3_3
*488 FILLER_0_3_39
*489 FILLER_0_3_51
*490 FILLER_0_3_55
*491 FILLER_0_3_57
*492 FILLER_0_3_69
*493 FILLER_0_3_81
*494 FILLER_0_3_93
*495 FILLER_0_4_109
*496 FILLER_0_4_121
*497 FILLER_0_4_133
*498 FILLER_0_4_139
*499 FILLER_0_4_141
*500 FILLER_0_4_15
*501 FILLER_0_4_153
*502 FILLER_0_4_165
*503 FILLER_0_4_177
*504 FILLER_0_4_189
*505 FILLER_0_4_27
*506 FILLER_0_4_29
*507 FILLER_0_4_3
*508 FILLER_0_4_41
*509 FILLER_0_4_53
*510 FILLER_0_4_65
*511 FILLER_0_4_77
*512 FILLER_0_4_83
*513 FILLER_0_4_85
*514 FILLER_0_4_97
*515 FILLER_0_5_105
*516 FILLER_0_5_111
*517 FILLER_0_5_113
*518 FILLER_0_5_125
*519 FILLER_0_5_137
*520 FILLER_0_5_149
*521 FILLER_0_5_15
*522 FILLER_0_5_161
*523 FILLER_0_5_167
*524 FILLER_0_5_169
*525 FILLER_0_5_181
*526 FILLER_0_5_189
*527 FILLER_0_5_27
*528 FILLER_0_5_3
*529 FILLER_0_5_39
*530 FILLER_0_5_51
*531 FILLER_0_5_55
*532 FILLER_0_5_57
*533 FILLER_0_5_69
*534 FILLER_0_5_81
*535 FILLER_0_5_93
*536 FILLER_0_6_109
*537 FILLER_0_6_121
*538 FILLER_0_6_133
*539 FILLER_0_6_139
*540 FILLER_0_6_141
*541 FILLER_0_6_15
*542 FILLER_0_6_153
*543 FILLER_0_6_165
*544 FILLER_0_6_177
*545 FILLER_0_6_189
*546 FILLER_0_6_27
*547 FILLER_0_6_29
*548 FILLER_0_6_3
*549 FILLER_0_6_41
*550 FILLER_0_6_53
*551 FILLER_0_6_65
*552 FILLER_0_6_77
*553 FILLER_0_6_83
*554 FILLER_0_6_85
*555 FILLER_0_6_97
*556 FILLER_0_7_105
*557 FILLER_0_7_111
*558 FILLER_0_7_113
*559 FILLER_0_7_125
*560 FILLER_0_7_137
*561 FILLER_0_7_149
*562 FILLER_0_7_15
*563 FILLER_0_7_161
*564 FILLER_0_7_167
*565 FILLER_0_7_169
*566 FILLER_0_7_181
*567 FILLER_0_7_189
*568 FILLER_0_7_27
*569 FILLER_0_7_3
*570 FILLER_0_7_39
*571 FILLER_0_7_51
*572 FILLER_0_7_55
*573 FILLER_0_7_57
*574 FILLER_0_7_69
*575 FILLER_0_7_81
*576 FILLER_0_7_93
*577 FILLER_0_8_109
*578 FILLER_0_8_121
*579 FILLER_0_8_133
*580 FILLER_0_8_139
*581 FILLER_0_8_141
*582 FILLER_0_8_15
*583 FILLER_0_8_153
*584 FILLER_0_8_165
*585 FILLER_0_8_177
*586 FILLER_0_8_189
*587 FILLER_0_8_27
*588 FILLER_0_8_29
*589 FILLER_0_8_3
*590 FILLER_0_8_41
*591 FILLER_0_8_53
*592 FILLER_0_8_65
*593 FILLER_0_8_77
*594 FILLER_0_8_83
*595 FILLER_0_8_85
*596 FILLER_0_8_97
*597 FILLER_0_9_105
*598 FILLER_0_9_111
*599 FILLER_0_9_113
*600 FILLER_0_9_125
*601 FILLER_0_9_137
*602 FILLER_0_9_149
*603 FILLER_0_9_15
*604 FILLER_0_9_161
*605 FILLER_0_9_167
*606 FILLER_0_9_169
*607 FILLER_0_9_181
*608 FILLER_0_9_189
*609 FILLER_0_9_27
*610 FILLER_0_9_3
*611 FILLER_0_9_39
*612 FILLER_0_9_51
*613 FILLER_0_9_55
*614 FILLER_0_9_57
*615 FILLER_0_9_69
*616 FILLER_0_9_81
*617 FILLER_0_9_93
*618 PHY_0
*619 PHY_1
*620 PHY_10
*621 PHY_11
*622 PHY_12
*623 PHY_13
*624 PHY_14
*625 PHY_15
*626 PHY_16
*627 PHY_17
*628 PHY_18
*629 PHY_19
*630 PHY_2
*631 PHY_20
*632 PHY_21
*633 PHY_22
*634 PHY_23
*635 PHY_24
*636 PHY_25
*637 PHY_26
*638 PHY_27
*639 PHY_28
*640 PHY_29
*641 PHY_3
*642 PHY_30
*643 PHY_31
*644 PHY_32
*645 PHY_33
*646 PHY_34
*647 PHY_35
*648 PHY_36
*649 PHY_37
*650 PHY_38
*651 PHY_39
*652 PHY_4
*653 PHY_40
*654 PHY_41
*655 PHY_42
*656 PHY_43
*657 PHY_44
*658 PHY_45
*659 PHY_46
*660 PHY_47
*661 PHY_48
*662 PHY_49
*663 PHY_5
*664 PHY_50
*665 PHY_51
*666 PHY_52
*667 PHY_53
*668 PHY_54
*669 PHY_55
*670 PHY_6
*671 PHY_7
*672 PHY_8
*673 PHY_9
*674 TAP_100
*675 TAP_101
*676 TAP_102
*677 TAP_103
*678 TAP_104
*679 TAP_105
*680 TAP_106
*681 TAP_107
*682 TAP_108
*683 TAP_109
*684 TAP_110
*685 TAP_111
*686 TAP_112
*687 TAP_113
*688 TAP_114
*689 TAP_115
*690 TAP_116
*691 TAP_117
*692 TAP_118
*693 TAP_119
*694 TAP_120
*695 TAP_121
*696 TAP_122
*697 TAP_123
*698 TAP_124
*699 TAP_125
*700 TAP_126
*701 TAP_127
*702 TAP_128
*703 TAP_129
*704 TAP_130
*705 TAP_131
*706 TAP_132
*707 TAP_133
*708 TAP_134
*709 TAP_135
*710 TAP_136
*711 TAP_137
*712 TAP_138
*713 TAP_139
*714 TAP_140
*715 TAP_141
*716 TAP_142
*717 TAP_143
*718 TAP_144
*719 TAP_145
*720 TAP_56
*721 TAP_57
*722 TAP_58
*723 TAP_59
*724 TAP_60
*725 TAP_61
*726 TAP_62
*727 TAP_63
*728 TAP_64
*729 TAP_65
*730 TAP_66
*731 TAP_67
*732 TAP_68
*733 TAP_69
*734 TAP_70
*735 TAP_71
*736 TAP_72
*737 TAP_73
*738 TAP_74
*739 TAP_75
*740 TAP_76
*741 TAP_77
*742 TAP_78
*743 TAP_79
*744 TAP_80
*745 TAP_81
*746 TAP_82
*747 TAP_83
*748 TAP_84
*749 TAP_85
*750 TAP_86
*751 TAP_87
*752 TAP_88
*753 TAP_89
*754 TAP_90
*755 TAP_91
*756 TAP_92
*757 TAP_93
*758 TAP_94
*759 TAP_95
*760 TAP_96
*761 TAP_97
*762 TAP_98
*763 TAP_99
*764 _29_
*765 _30_
*766 _31_
*767 _32_
*768 _33_
*769 _34_
*770 _35_
*771 _36_
*772 _37_
*773 _38_
*774 _39_
*775 _40_
*776 _41_
*777 _42_
*778 _43_
*779 _44_
*780 _45_
*781 _46_
*782 _47_
*783 _48_
*784 _49_
*785 _50_
*786 _51_
*787 _52_
*788 _53_
*789 _54_
*790 _55_
*791 _56_
*792 _57_
*793 _58_
*794 _59_
*795 _60_
*796 _61_
*797 _62_
*798 _63_
*799 _64_
*800 _65_
*801 _66_
*802 _67_
*803 _68_
*804 _69_
*805 input1
*806 input2
*807 input3
*808 output4
*809 output5
*810 output6
*811 output7

*PORTS
clear I
clock I
hwy[0] O
hwy[1] O
road[0] O
road[1] O
x I

*D_NET *3 0.000555142
*CONN
*P clear I
*I *805:A I *D sky130_fd_sc_hd__clkbuf_2
*CAP
1 clear 0.000277571
2 *805:A 0.000277571
*RES
1 clear *805:A 6.50197 
*END

*D_NET *4 0.000773657
*CONN
*P clock I
*I *806:A I *D sky130_fd_sc_hd__clkbuf_2
*CAP
1 clock 0.000386829
2 *806:A 0.000386829
*RES
1 clock *806:A 10.545 
*END

*D_NET *5 0.000477144
*CONN
*P hwy[0] O
*I *808:X O *D sky130_fd_sc_hd__clkbuf_4
*CAP
1 hwy[0] 0.000238572
2 *808:X 0.000238572
*RES
1 *808:X hwy[0] 6.64043 
*END

*D_NET *6 0.00132797
*CONN
*P hwy[1] O
*I *809:X O *D sky130_fd_sc_hd__clkbuf_4
*CAP
1 hwy[1] 0.000663984
2 *809:X 0.000663984
*RES
1 *809:X hwy[1] 14.925 
*END

*D_NET *7 0.000976338
*CONN
*P road[0] O
*I *810:X O *D sky130_fd_sc_hd__clkbuf_4
*CAP
1 road[0] 0.000488169
2 *810:X 0.000488169
*RES
1 *810:X road[0] 11.715 
*END

*D_NET *8 0.00106148
*CONN
*P road[1] O
*I *811:X O *D sky130_fd_sc_hd__clkbuf_4
*CAP
1 road[1] 0.000504206
2 *811:X 0.000504206
3 road[1] *811:A 5.30673e-05
*RES
1 *811:X road[1] 12.06 
*END

*D_NET *9 0.000616557
*CONN
*P x I
*I *807:A I *D sky130_fd_sc_hd__buf_1
*CAP
1 x 0.000308279
2 *807:A 0.000308279
*RES
1 x *807:A 7.5687 
*END

*D_NET *10 0.000288818
*CONN
*I *797:D I *D sky130_fd_sc_hd__dfxtp_1
*I *775:X O *D sky130_fd_sc_hd__a221o_1
*CAP
1 *797:D 9.25521e-05
2 *775:X 9.25521e-05
3 *797:D *776:B2 1.85674e-05
4 *797:D *797:CLK 4.82863e-05
5 *797:D *49:16 3.68602e-05
*RES
1 *775:X *797:D 4.92875 
*END

*D_NET *11 0.000683226
*CONN
*I *798:D I *D sky130_fd_sc_hd__dfxtp_1
*I *768:X O *D sky130_fd_sc_hd__a32o_1
*CAP
1 *798:D 0.000280452
2 *768:X 0.000280452
3 *798:D *771:B 0
4 *798:D *798:CLK 7.23602e-05
5 *798:D *801:D 0
6 *798:D *21:10 0
7 *798:D *42:24 0
8 *798:D *50:40 4.99619e-05
*RES
1 *768:X *798:D 11.4937 
*END

*D_NET *12 0.000466757
*CONN
*I *799:D I *D sky130_fd_sc_hd__dfxtp_1
*I *774:X O *D sky130_fd_sc_hd__a32o_1
*CAP
1 *799:D 0.000210808
2 *774:X 0.000210808
3 *799:D *774:A3 2.04902e-05
4 *799:D *51:10 0
5 *799:D *53:14 2.46508e-05
*RES
1 *774:X *799:D 10.3687 
*END

*D_NET *13 0.00105239
*CONN
*I *800:D I *D sky130_fd_sc_hd__dfxtp_2
*I *776:X O *D sky130_fd_sc_hd__a22o_1
*CAP
1 *800:D 0.000221693
2 *776:X 0.000221693
3 *800:D *775:A1 2.41307e-05
4 *800:D *800:CLK 7.11365e-05
5 *800:D *43:58 1.11025e-05
6 *800:D *52:14 0.000502638
*RES
1 *776:X *800:D 13.1138 
*END

*D_NET *14 0.000440508
*CONN
*I *801:D I *D sky130_fd_sc_hd__dfxtp_1
*I *772:X O *D sky130_fd_sc_hd__a32o_1
*CAP
1 *801:D 0.000168935
2 *772:X 0.000168935
3 *801:D *799:CLK 1.43717e-05
4 *801:D *53:46 8.8266e-05
5 *798:D *801:D 0
*RES
1 *772:X *801:D 9.76875 
*END

*D_NET *15 0.000658618
*CONN
*I *802:D I *D sky130_fd_sc_hd__dfxtp_1
*I *789:X O *D sky130_fd_sc_hd__clkbuf_1
*CAP
1 *802:D 0.000329309
2 *789:X 0.000329309
3 *802:D *39:10 0
*RES
1 *789:X *802:D 12.1838 
*END

*D_NET *16 0.000311304
*CONN
*I *803:D I *D sky130_fd_sc_hd__dfxtp_1
*I *794:X O *D sky130_fd_sc_hd__clkbuf_1
*CAP
1 *803:D 0.000139734
2 *794:X 0.000139734
3 *803:D *803:CLK 3.18356e-05
*RES
1 *794:X *803:D 9.34875 
*END

*D_NET *17 0.000496041
*CONN
*I *804:D I *D sky130_fd_sc_hd__dfxtp_1
*I *796:Y O *D sky130_fd_sc_hd__a21oi_1
*CAP
1 *804:D 0.000248021
2 *796:Y 0.000248021
*RES
1 *796:Y *804:D 11.0437 
*END

*D_NET *18 0.00321907
*CONN
*I *768:A1 I *D sky130_fd_sc_hd__a32o_1
*I *770:A I *D sky130_fd_sc_hd__and2_1
*I *774:A1 I *D sky130_fd_sc_hd__a32o_1
*I *795:B1 I *D sky130_fd_sc_hd__o21ai_1
*I *764:Y O *D sky130_fd_sc_hd__inv_2
*CAP
1 *768:A1 0.000132688
2 *770:A 0
3 *774:A1 0.000321504
4 *795:B1 0.000270937
5 *764:Y 0
6 *18:25 0.000695143
7 *18:6 0.000644577
8 *18:4 0.000132688
9 *768:A1 *776:A2 9.30787e-05
10 *768:A1 *787:B1 4.77807e-05
11 *768:A1 *42:34 8.64599e-05
12 *774:A1 *53:46 0.000303029
13 *795:B1 *776:A2 0
14 *795:B1 *20:12 9.87e-05
15 *795:B1 *20:54 4.85823e-05
16 *18:25 *770:B 3.4344e-05
17 *18:25 *772:A3 0.000113025
18 *18:25 *772:B1 0.000141483
19 *18:25 *50:40 2.16389e-05
20 *18:25 *53:46 3.3415e-05
*RES
1 *764:Y *18:4 1.6 
2 *18:4 *18:6 2 
3 *18:6 *795:B1 8.55 
4 *18:6 *18:25 7.835 
5 *18:25 *774:A1 10.205 
6 *18:25 *770:A 1.6 
7 *18:4 *768:A1 7.865 
*END

*D_NET *19 0.00347263
*CONN
*I *775:A1 I *D sky130_fd_sc_hd__a221o_1
*I *771:B I *D sky130_fd_sc_hd__nor2_1
*I *768:A2 I *D sky130_fd_sc_hd__a32o_1
*I *765:Y O *D sky130_fd_sc_hd__inv_2
*CAP
1 *775:A1 0.000111028
2 *771:B 0.000104908
3 *768:A2 5.15099e-05
4 *765:Y 0.000449103
5 *19:12 0.000520534
6 *19:6 0.000924248
7 *768:A2 *768:A3 0
8 *768:A2 *768:B1 2.09749e-05
9 *768:A2 *772:B1 5.92369e-05
10 *768:A2 *775:B2 9.53428e-06
11 *768:A2 *50:40 6.97034e-05
12 *768:A2 *50:78 2.31547e-05
13 *771:B *767:B 3.26889e-05
14 *771:B *21:10 0.000290382
15 *771:B *42:20 5.59676e-05
16 *771:B *42:24 8.71001e-05
17 *771:B *43:73 2.8185e-05
18 *775:A1 *776:B1 0.000137351
19 *775:A1 *20:20 0.000178322
20 *19:6 *765:A 3.30017e-05
21 *19:12 *776:A2 0.000134381
22 *19:12 *776:B2 0
23 *19:12 *21:10 5.16418e-05
24 *19:12 *42:24 1.26626e-05
25 *19:12 *42:34 6.28765e-05
26 *798:D *771:B 0
27 *800:D *775:A1 2.41307e-05
*RES
1 *765:Y *19:6 6.535 
2 *19:6 *19:12 7.85 
3 *19:12 *768:A2 5.1 
4 *19:12 *771:B 7.335 
5 *19:6 *775:A1 8.765 
*END

*D_NET *20 0.0061885
*CONN
*I *787:A1 I *D sky130_fd_sc_hd__a21oi_1
*I *774:A3 I *D sky130_fd_sc_hd__a32o_1
*I *767:B I *D sky130_fd_sc_hd__nor2_1
*I *775:B1 I *D sky130_fd_sc_hd__a221o_1
*I *766:Y O *D sky130_fd_sc_hd__nor3b_2
*CAP
1 *787:A1 0
2 *774:A3 0.000290562
3 *767:B 0.000110741
4 *775:B1 6.13778e-05
5 *766:Y 0.000136938
6 *20:54 0.00107226
7 *20:20 0.000606153
8 *20:12 0.00135267
9 *767:B *21:10 1.16578e-05
10 *767:B *24:14 0.000104074
11 *767:B *42:20 8.25254e-05
12 *767:B *43:73 0
13 *767:B *50:18 4.77225e-05
14 *774:A3 *774:A2 0
15 *774:A3 *51:10 4.05358e-05
16 *775:B1 *775:B2 4.51825e-06
17 *775:B1 *776:B2 2.85038e-05
18 *775:B1 *49:16 4.08935e-05
19 *775:B1 *50:18 4.80285e-05
20 *775:B1 *50:78 0
21 *20:12 *772:A1 5.42265e-05
22 *20:12 *50:40 2.98644e-05
23 *20:20 *776:B1 6.71803e-06
24 *20:20 *24:14 4.53267e-05
25 *20:20 *43:58 0
26 *20:20 *43:73 0
27 *20:20 *52:14 4.4973e-05
28 *20:20 *52:20 0.000493306
29 *20:54 *787:B1 0.00101255
30 *20:54 *50:40 8.35849e-05
31 *771:B *767:B 3.26889e-05
32 *775:A1 *20:20 0.000178322
33 *795:B1 *20:12 9.87e-05
34 *795:B1 *20:54 4.85823e-05
35 *799:D *774:A3 2.04902e-05
*RES
1 *766:Y *20:12 6.555 
2 *20:12 *20:20 11.845 
3 *20:20 *775:B1 5.115 
4 *20:20 *767:B 6.495 
5 *20:12 *20:54 13.235 
6 *20:54 *774:A3 10.295 
7 *20:54 *787:A1 1.6 
*END

*D_NET *21 0.0019279
*CONN
*I *768:B1 I *D sky130_fd_sc_hd__a32o_1
*I *776:A2 I *D sky130_fd_sc_hd__a22o_1
*I *767:Y O *D sky130_fd_sc_hd__nor2_1
*CAP
1 *768:B1 6.14403e-06
2 *776:A2 0.00021682
3 *767:Y 0.000203856
4 *21:10 0.00042682
5 *768:B1 *772:B1 2.09749e-05
6 *776:A2 *776:A1 9.12671e-06
7 *776:A2 *776:B2 4.77769e-05
8 *776:A2 *42:34 0.000119441
9 *776:A2 *52:14 2.49909e-05
10 *776:A2 *52:20 0.000179875
11 *21:10 *24:14 4.99619e-05
12 *21:10 *42:20 1.12578e-05
13 *21:10 *43:73 8.73389e-06
14 *21:10 *50:40 0
15 *767:B *21:10 1.16578e-05
16 *768:A1 *776:A2 9.30787e-05
17 *768:A2 *768:B1 2.09749e-05
18 *771:B *21:10 0.000290382
19 *795:B1 *776:A2 0
20 *798:D *21:10 0
21 *19:12 *776:A2 0.000134381
22 *19:12 *21:10 5.16418e-05
*RES
1 *767:Y *21:10 7.92 
2 *21:10 *776:A2 8.925 
3 *21:10 *768:B1 3.8025 
*END

*D_NET *22 0.000919356
*CONN
*I *772:A2 I *D sky130_fd_sc_hd__a32o_1
*I *769:Y O *D sky130_fd_sc_hd__nor2_1
*CAP
1 *772:A2 0.000295632
2 *769:Y 0.000295632
3 *772:A2 *766:A 2.63208e-06
4 *772:A2 *766:C_N 3.33839e-05
5 *772:A2 *770:B 0
6 *772:A2 *772:A1 0.000258692
7 *772:A2 *39:39 3.33839e-05
*RES
1 *769:Y *772:A2 12.195 
*END

*D_NET *23 0.00080731
*CONN
*I *772:A3 I *D sky130_fd_sc_hd__a32o_1
*I *774:B2 I *D sky130_fd_sc_hd__a32o_1
*I *770:X O *D sky130_fd_sc_hd__and2_1
*CAP
1 *772:A3 0.000100251
2 *774:B2 2.18346e-05
3 *770:X 0
4 *23:4 0.000122085
5 *772:A3 *768:A3 0
6 *772:A3 *770:B 5.02433e-05
7 *772:A3 *53:46 0.000350942
8 *774:B2 *53:46 4.89295e-05
9 *18:25 *772:A3 0.000113025
*RES
1 *770:X *23:4 1.6 
2 *23:4 *774:B2 2.05 
3 *23:4 *772:A3 5.17 
*END

*D_NET *24 0.00208102
*CONN
*I *776:B1 I *D sky130_fd_sc_hd__a22o_1
*I *772:B1 I *D sky130_fd_sc_hd__a32o_1
*I *771:Y O *D sky130_fd_sc_hd__nor2_1
*CAP
1 *776:B1 4.41876e-05
2 *772:B1 0.000324056
3 *771:Y 0.000171482
4 *24:14 0.000539726
5 *772:B1 *768:A3 0.00012657
6 *772:B1 *775:B2 8.40213e-05
7 *772:B1 *776:B2 8.53113e-06
8 *772:B1 *42:34 4.01019e-05
9 *772:B1 *50:40 1.8942e-05
10 *772:B1 *53:46 2.00935e-05
11 *776:B1 *776:B2 0.000113663
12 *24:14 *42:24 1.94351e-05
13 *24:14 *42:34 5.08304e-06
14 *767:B *24:14 0.000104074
15 *768:A2 *772:B1 5.92369e-05
16 *768:B1 *772:B1 2.09749e-05
17 *775:A1 *776:B1 0.000137351
18 *18:25 *772:B1 0.000141483
19 *20:20 *776:B1 6.71803e-06
20 *20:20 *24:14 4.53267e-05
21 *21:10 *24:14 4.99619e-05
*RES
1 *771:Y *24:14 6.7125 
2 *24:14 *772:B1 9.42 
3 *24:14 *776:B1 5.3625 
*END

*D_NET *25 0.00128679
*CONN
*I *774:B1 I *D sky130_fd_sc_hd__a32o_1
*I *791:C I *D sky130_fd_sc_hd__or4b_1
*I *773:X O *D sky130_fd_sc_hd__or3b_1
*CAP
1 *774:B1 0.000274911
2 *791:C 7.2671e-05
3 *773:X 0.000108868
4 *25:8 0.00045645
5 *774:B1 *774:A2 4.59847e-05
6 *774:B1 *52:30 5.81101e-05
7 *774:B1 *53:46 1.01418e-05
8 *791:C *791:D_N 0.000122797
9 *791:C *51:32 0.000136853
*RES
1 *773:X *25:8 4.98 
2 *25:8 *791:C 5.775 
3 *25:8 *774:B1 7.8075 
*END

*D_NET *26 0.000527957
*CONN
*I *778:A I *D sky130_fd_sc_hd__clkbuf_1
*I *777:X O *D sky130_fd_sc_hd__clkbuf_1
*CAP
1 *778:A 0.000263979
2 *777:X 0.000263979
*RES
1 *777:X *778:A 10.77 
*END

*D_NET *27 0.000878202
*CONN
*I *780:A I *D sky130_fd_sc_hd__clkbuf_1
*I *779:X O *D sky130_fd_sc_hd__clkbuf_1
*CAP
1 *780:A 0.000334354
2 *779:X 0.000334354
3 *780:A *42:12 0.000209495
*RES
1 *779:X *780:A 12.045 
*END

*D_NET *28 0.00105581
*CONN
*I *787:A2 I *D sky130_fd_sc_hd__a21oi_1
*I *786:C I *D sky130_fd_sc_hd__or3_1
*I *782:C I *D sky130_fd_sc_hd__nor3_1
*I *781:X O *D sky130_fd_sc_hd__or2_1
*CAP
1 *787:A2 2.77365e-05
2 *786:C 0
3 *782:C 6.18871e-05
4 *781:X 0
5 *28:17 0.000304801
6 *28:4 0.000338952
7 *782:C *782:B 9.51579e-05
8 *787:A2 *782:B 5.83121e-06
9 *28:17 *781:A 4.77807e-05
10 *28:17 *782:B 0.000102527
11 *28:17 *786:A 7.11365e-05
*RES
1 *781:X *28:4 1.6 
2 *28:4 *782:C 3.085 
3 *28:4 *28:17 4.965 
4 *28:17 *786:C 1.6 
5 *28:17 *787:A2 2.05 
*END

*D_NET *29 0.00502852
*CONN
*I *784:A I *D sky130_fd_sc_hd__clkbuf_1
*I *783:X O *D sky130_fd_sc_hd__buf_1
*CAP
1 *784:A 0.00251426
2 *783:X 0.00251426
*RES
1 *783:X *784:A 47.94 
*END

*D_NET *30 0.00122464
*CONN
*I *788:A_N I *D sky130_fd_sc_hd__and3b_1
*I *792:B I *D sky130_fd_sc_hd__or2_1
*I *785:X O *D sky130_fd_sc_hd__o31a_1
*CAP
1 *788:A_N 6.78625e-05
2 *792:B 0.000381275
3 *785:X 5.36884e-05
4 *30:8 0.000502825
5 *792:B *783:A 0.000160338
6 *792:B *792:A 4.77769e-05
7 *792:B *39:24 1.08758e-05
*RES
1 *785:X *30:8 4.47 
2 *30:8 *792:B 9.825 
3 *30:8 *788:A_N 4.665 
*END

*D_NET *31 0.00110333
*CONN
*I *788:B I *D sky130_fd_sc_hd__and3b_1
*I *786:X O *D sky130_fd_sc_hd__or3_1
*CAP
1 *788:B 0.000265989
2 *786:X 0.000265989
3 *788:B *781:B 6.73523e-05
4 *788:B *782:B 0.000121659
5 *788:B *783:A 0.000187522
6 *788:B *785:B1 1.88656e-05
7 *788:B *786:A 4.20431e-05
8 *788:B *789:A 5.31158e-06
9 *788:B *790:C1 8.64769e-05
10 *788:B *52:36 1.13059e-05
11 *788:B *52:40 3.0816e-05
*RES
1 *786:X *788:B 13.08 
*END

*D_NET *32 0.00133504
*CONN
*I *793:B I *D sky130_fd_sc_hd__and4b_1
*I *788:C I *D sky130_fd_sc_hd__and3b_1
*I *787:Y O *D sky130_fd_sc_hd__a21oi_1
*CAP
1 *793:B 0
2 *788:C 0.000210266
3 *787:Y 0.000213138
4 *32:12 0.000423404
5 *788:C *793:A_N 8.52972e-05
6 *788:C *34:25 4.77807e-05
7 *788:C *40:20 4.06695e-05
8 *32:12 *786:A 0
9 *32:12 *793:C 0.000155625
10 *32:12 *34:25 0.000112561
11 *32:12 *39:57 0
12 *32:12 *50:40 4.63004e-05
*RES
1 *787:Y *32:12 9.905 
2 *32:12 *788:C 4.81 
3 *32:12 *793:B 1.6 
*END

*D_NET *33 0.000822009
*CONN
*I *789:A I *D sky130_fd_sc_hd__clkbuf_1
*I *788:X O *D sky130_fd_sc_hd__and3b_1
*CAP
1 *789:A 0.000297229
2 *788:X 0.000297229
3 *789:A *783:A 5.42551e-05
4 *789:A *792:A 7.1624e-05
5 *789:A *39:10 3.97438e-05
6 *789:A *39:57 5.66151e-05
7 *788:B *789:A 5.31158e-06
*RES
1 *788:X *789:A 12.9 
*END

*D_NET *34 0.00293562
*CONN
*I *795:A2 I *D sky130_fd_sc_hd__o21ai_1
*I *796:A2 I *D sky130_fd_sc_hd__a21oi_1
*I *793:A_N I *D sky130_fd_sc_hd__and4b_1
*I *790:X O *D sky130_fd_sc_hd__o311a_1
*CAP
1 *795:A2 0
2 *796:A2 0.000164485
3 *793:A_N 1.49482e-05
4 *790:X 0.000133385
5 *34:25 0.000585719
6 *34:12 0.000569566
7 *793:A_N *40:20 5.09431e-05
8 *796:A2 *796:A1 0.000110537
9 *34:12 *50:42 2.69217e-05
10 *34:25 *773:A 3.01547e-05
11 *34:25 *793:C 2.21074e-05
12 *34:25 *793:D 5.79765e-05
13 *34:25 *796:A1 4.89395e-05
14 *34:25 *39:24 8.52951e-05
15 *34:25 *39:39 0.000148303
16 *34:25 *40:14 0.000196061
17 *34:25 *40:20 0.000343765
18 *34:25 *41:12 6.44017e-05
19 *34:25 *41:53 3.64696e-05
20 *788:C *793:A_N 8.52972e-05
21 *788:C *34:25 4.77807e-05
22 *32:12 *34:25 0.000112561
*RES
1 *790:X *34:12 7.43 
2 *34:12 *793:A_N 2.395 
3 *34:12 *34:25 11.265 
4 *34:25 *796:A2 4.75 
5 *34:25 *795:A2 1.6 
*END

*D_NET *35 0.000429208
*CONN
*I *793:C I *D sky130_fd_sc_hd__and4b_1
*I *791:X O *D sky130_fd_sc_hd__or4b_1
*CAP
1 *793:C 0.000125738
2 *791:X 0.000125738
3 *32:12 *793:C 0.000155625
4 *34:25 *793:C 2.21074e-05
*RES
1 *791:X *793:C 9.21 
*END

*D_NET *36 0.000474987
*CONN
*I *793:D I *D sky130_fd_sc_hd__and4b_1
*I *792:X O *D sky130_fd_sc_hd__or2_1
*CAP
1 *793:D 0.000153738
2 *792:X 0.000153738
3 *793:D *794:A 2.41307e-05
4 *793:D *39:24 2.74281e-05
5 *793:D *40:20 5.79765e-05
6 *34:25 *793:D 5.79765e-05
*RES
1 *792:X *793:D 9.91875 
*END

*D_NET *37 0.000372257
*CONN
*I *794:A I *D sky130_fd_sc_hd__clkbuf_1
*I *793:X O *D sky130_fd_sc_hd__and4b_1
*CAP
1 *794:A 0.000130833
2 *793:X 0.000130833
3 *794:A *39:24 8.64599e-05
4 *793:D *794:A 2.41307e-05
*RES
1 *793:X *794:A 9.735 
*END

*D_NET *38 9.8573e-05
*CONN
*I *796:B1 I *D sky130_fd_sc_hd__a21oi_1
*I *795:Y O *D sky130_fd_sc_hd__o21ai_1
*CAP
1 *796:B1 2.53961e-05
2 *795:Y 2.53961e-05
3 *796:B1 *796:A1 4.77807e-05
*RES
1 *795:Y *796:B1 3.65 
*END

*D_NET *39 0.00593149
*CONN
*I *785:B1 I *D sky130_fd_sc_hd__o31a_1
*I *786:A I *D sky130_fd_sc_hd__or3_1
*I *790:B1 I *D sky130_fd_sc_hd__o311a_1
*I *766:B I *D sky130_fd_sc_hd__nor3b_2
*I *772:A1 I *D sky130_fd_sc_hd__a32o_1
*I *773:C_N I *D sky130_fd_sc_hd__or3b_1
*I *802:Q O *D sky130_fd_sc_hd__dfxtp_1
*CAP
1 *785:B1 0.000229237
2 *786:A 0.000149473
3 *790:B1 0
4 *766:B 0
5 *772:A1 0.000134942
6 *773:C_N 0
7 *802:Q 0.000294439
8 *39:57 0.00064417
9 *39:39 0.000299387
10 *39:24 0.000903005
11 *39:10 0.00129846
12 *772:A1 *50:40 0.000106415
13 *785:B1 *783:A 1.97486e-05
14 *785:B1 *52:40 9.12494e-06
15 *786:A *782:B 0.000122821
16 *39:24 *773:A 8.52951e-05
17 *39:24 *792:A 4.31979e-05
18 *39:24 *40:10 6.49029e-05
19 *39:24 *40:59 1.24708e-05
20 *39:39 *766:A 7.11365e-05
21 *39:39 *773:A 1.14192e-05
22 *39:39 *40:59 5.35774e-05
23 *39:39 *41:10 9.23804e-06
24 *39:39 *41:12 0.00014714
25 *39:57 *790:C1 0.000217201
26 *39:57 *792:A 7.1624e-05
27 *772:A2 *772:A1 0.000258692
28 *772:A2 *39:39 3.33839e-05
29 *788:B *785:B1 1.88656e-05
30 *788:B *786:A 4.20431e-05
31 *789:A *39:10 3.97438e-05
32 *789:A *39:57 5.66151e-05
33 *792:B *39:24 1.08758e-05
34 *793:D *39:24 2.74281e-05
35 *794:A *39:24 8.64599e-05
36 *802:D *39:10 0
37 *20:12 *772:A1 5.42265e-05
38 *28:17 *786:A 7.11365e-05
39 *32:12 *786:A 0
40 *32:12 *39:57 0
41 *34:25 *39:24 8.52951e-05
42 *34:25 *39:39 0.000148303
*RES
1 *802:Q *39:10 7.65 
2 *39:10 *39:24 17.85 
3 *39:24 *773:C_N 1.6 