*SPEF "ieee 1481-1999"
*DESIGN "trafficlight_controller"
*DATE "11:11:11 Fri 11 11, 1111"
*VENDOR "OpenRCX"
*PROGRAM "Parallel Extraction"
*VERSION "1.0"
*DESIGN_FLOW "NAME_SCOPE LOCAL" "PIN_CAP NONE"
*DIVIDER /
*DELIMITER :
*BUS_DELIMITER []
*T_UNIT 1 NS
*C_UNIT 1 PF
*R_UNIT 1 OHM
*L_UNIT 1 HENRY

*NAME_MAP
*3 clear
*4 clock
*5 hwy[0]
*6 hwy[1]
*7 road[0]
*8 road[1]
*9 x
*10 _00_
*11 _01_
*12 _02_
*13 _03_
*14 _04_
*15 _05_
*16 _06_
*17 _07_
*18 _08_
*19 _09_
*20 _10_
*21 _11_
*22 _12_
*23 _13_
*24 _14_
*25 _15_
*26 _16_
*27 _17_
*28 _18_
*29 _19_
*30 _20_
*31 _21_
*32 _22_
*33 _23_
*34 _24_
*35 _25_
*36 _26_
*37 _27_
*38 _28_
*39 delay\[0\]
*40 delay\[1\]
*41 delay\[2\]
*42 net1
*43 net2
*44 net3
*45 net4
*46 net5
*47 net6
*48 net7
*49 state\[0\]
*50 state\[1\]
*51 state\[2\]
*52 state\[3\]
*53 state\[4\]
*54 FILLER_0_0_105
*55 FILLER_0_0_113
*56 FILLER_0_0_125
*57 FILLER_0_0_137
*58 FILLER_0_0_141
*59 FILLER_0_0_153
*60 FILLER_0_0_165
*61 FILLER_0_0_169
*62 FILLER_0_0_181
*63 FILLER_0_0_21
*64 FILLER_0_0_27
*65 FILLER_0_0_29
*66 FILLER_0_0_41
*67 FILLER_0_0_53
*68 FILLER_0_0_57
*69 FILLER_0_0_69
*70 FILLER_0_0_81
*71 FILLER_0_0_85
*72 FILLER_0_0_9
*73 FILLER_0_0_97
*74 FILLER_0_10_109
*75 FILLER_0_10_121
*76 FILLER_0_10_133
*77 FILLER_0_10_139
*78 FILLER_0_10_141
*79 FILLER_0_10_15
*80 FILLER_0_10_153
*81 FILLER_0_10_165
*82 FILLER_0_10_177
*83 FILLER_0_10_189
*84 FILLER_0_10_27
*85 FILLER_0_10_29
*86 FILLER_0_10_3
*87 FILLER_0_10_41
*88 FILLER_0_10_53
*89 FILLER_0_10_65
*90 FILLER_0_10_77
*91 FILLER_0_10_83
*92 FILLER_0_10_85
*93 FILLER_0_10_97
*94 FILLER_0_11_105
*95 FILLER_0_11_111
*96 FILLER_0_11_113
*97 FILLER_0_11_125
*98 FILLER_0_11_137
*99 FILLER_0_11_149
*100 FILLER_0_11_15
*101 FILLER_0_11_161
*102 FILLER_0_11_167
*103 FILLER_0_11_169
*104 FILLER_0_11_181
*105 FILLER_0_11_189
*106 FILLER_0_11_27
*107 FILLER_0_11_3
*108 FILLER_0_11_39
*109 FILLER_0_11_51
*110 FILLER_0_11_55
*111 FILLER_0_11_57
*112 FILLER_0_11_69
*113 FILLER_0_11_81
*114 FILLER_0_11_93
*115 FILLER_0_12_109
*116 FILLER_0_12_121
*117 FILLER_0_12_133
*118 FILLER_0_12_139
*119 FILLER_0_12_141
*120 FILLER_0_12_15
*121 FILLER_0_12_153
*122 FILLER_0_12_165
*123 FILLER_0_12_177
*124 FILLER_0_12_189
*125 FILLER_0_12_27
*126 FILLER_0_12_29
*127 FILLER_0_12_3
*128 FILLER_0_12_41
*129 FILLER_0_12_53
*130 FILLER_0_12_65
*131 FILLER_0_12_77
*132 FILLER_0_12_83
*133 FILLER_0_12_85
*134 FILLER_0_12_97
*135 FILLER_0_13_105
*136 FILLER_0_13_111
*137 FILLER_0_13_113
*138 FILLER_0_13_125
*139 FILLER_0_13_137
*140 FILLER_0_13_149
*141 FILLER_0_13_15
*142 FILLER_0_13_161
*143 FILLER_0_13_167
*144 FILLER_0_13_169
*145 FILLER_0_13_181
*146 FILLER_0_13_189
*147 FILLER_0_13_27
*148 FILLER_0_13_3
*149 FILLER_0_13_39
*150 FILLER_0_13_51
*151 FILLER_0_13_55
*152 FILLER_0_13_57
*153 FILLER_0_13_69
*154 FILLER_0_13_81
*155 FILLER_0_13_93
*156 FILLER_0_14_109
*157 FILLER_0_14_121
*158 FILLER_0_14_133
*159 FILLER_0_14_139
*160 FILLER_0_14_141
*161 FILLER_0_14_15
*162 FILLER_0_14_153
*163 FILLER_0_14_165
*164 FILLER_0_14_177
*165 FILLER_0_14_189
*166 FILLER_0_14_27
*167 FILLER_0_14_29
*168 FILLER_0_14_3
*169 FILLER_0_14_41
*170 FILLER_0_14_53
*171 FILLER_0_14_59
*172 FILLER_0_14_76
*173 FILLER_0_14_85
*174 FILLER_0_14_97
*175 FILLER_0_15_110
*176 FILLER_0_15_113
*177 FILLER_0_15_125
*178 FILLER_0_15_137
*179 FILLER_0_15_149
*180 FILLER_0_15_15
*181 FILLER_0_15_161
*182 FILLER_0_15_167
*183 FILLER_0_15_169
*184 FILLER_0_15_181
*185 FILLER_0_15_189
*186 FILLER_0_15_27
*187 FILLER_0_15_3
*188 FILLER_0_15_39
*189 FILLER_0_15_51
*190 FILLER_0_15_55
*191 FILLER_0_15_57
*192 FILLER_0_15_64
*193 FILLER_0_15_86
*194 FILLER_0_15_98
*195 FILLER_0_16_105
*196 FILLER_0_16_117
*197 FILLER_0_16_129
*198 FILLER_0_16_137
*199 FILLER_0_16_141
*200 FILLER_0_16_15
*201 FILLER_0_16_153
*202 FILLER_0_16_165
*203 FILLER_0_16_177
*204 FILLER_0_16_189
*205 FILLER_0_16_27
*206 FILLER_0_16_29
*207 FILLER_0_16_3
*208 FILLER_0_16_37
*209 FILLER_0_16_43
*210 FILLER_0_16_55
*211 FILLER_0_16_62
*212 FILLER_0_16_71
*213 FILLER_0_16_83
*214 FILLER_0_16_85
*215 FILLER_0_17_111
*216 FILLER_0_17_130
*217 FILLER_0_17_142
*218 FILLER_0_17_154
*219 FILLER_0_17_166
*220 FILLER_0_17_169
*221 FILLER_0_17_181
*222 FILLER_0_17_189
*223 FILLER_0_17_21
*224 FILLER_0_17_33
*225 FILLER_0_17_45
*226 FILLER_0_17_57
*227 FILLER_0_17_67
*228 FILLER_0_17_75
*229 FILLER_0_17_83
*230 FILLER_0_17_9
*231 FILLER_0_17_99
*232 FILLER_0_18_107
*233 FILLER_0_18_115
*234 FILLER_0_18_121
*235 FILLER_0_18_133
*236 FILLER_0_18_139
*237 FILLER_0_18_141
*238 FILLER_0_18_15
*239 FILLER_0_18_153
*240 FILLER_0_18_165
*241 FILLER_0_18_177
*242 FILLER_0_18_189
*243 FILLER_0_18_27
*244 FILLER_0_18_29
*245 FILLER_0_18_3
*246 FILLER_0_18_41
*247 FILLER_0_18_47
*248 FILLER_0_18_63
*249 FILLER_0_18_74
*250 FILLER_0_18_80
*251 FILLER_0_18_95
*252 FILLER_0_19_109
*253 FILLER_0_19_113
*254 FILLER_0_19_125
*255 FILLER_0_19_137
*256 FILLER_0_19_149
*257 FILLER_0_19_15
*258 FILLER_0_19_161
*259 FILLER_0_19_167
*260 FILLER_0_19_169
*261 FILLER_0_19_181
*262 FILLER_0_19_189
*263 FILLER_0_19_27
*264 FILLER_0_19_3
*265 FILLER_0_19_39
*266 FILLER_0_19_46
*267 FILLER_0_19_54
*268 FILLER_0_19_66
*269 FILLER_0_19_78
*270 FILLER_0_19_90
*271 FILLER_0_19_96
*272 FILLER_0_1_10
*273 FILLER_0_1_105
*274 FILLER_0_1_111
*275 FILLER_0_1_113
*276 FILLER_0_1_125
*277 FILLER_0_1_137
*278 FILLER_0_1_149
*279 FILLER_0_1_161
*280 FILLER_0_1_167
*281 FILLER_0_1_169
*282 FILLER_0_1_181
*283 FILLER_0_1_189
*284 FILLER_0_1_22
*285 FILLER_0_1_3
*286 FILLER_0_1_34
*287 FILLER_0_1_46
*288 FILLER_0_1_54
*289 FILLER_0_1_57
*290 FILLER_0_1_69
*291 FILLER_0_1_81
*292 FILLER_0_1_93
*293 FILLER_0_20_125
*294 FILLER_0_20_137
*295 FILLER_0_20_141
*296 FILLER_0_20_15
*297 FILLER_0_20_153
*298 FILLER_0_20_165
*299 FILLER_0_20_177
*300 FILLER_0_20_189
*301 FILLER_0_20_27
*302 FILLER_0_20_29
*303 FILLER_0_20_3
*304 FILLER_0_20_41
*305 FILLER_0_20_53
*306 FILLER_0_20_65
*307 FILLER_0_20_69
*308 FILLER_0_20_83
*309 FILLER_0_21_107
*310 FILLER_0_21_111
*311 FILLER_0_21_113
*312 FILLER_0_21_125
*313 FILLER_0_21_137
*314 FILLER_0_21_149
*315 FILLER_0_21_15
*316 FILLER_0_21_161
*317 FILLER_0_21_167
*318 FILLER_0_21_169
*319 FILLER_0_21_181
*320 FILLER_0_21_189
*321 FILLER_0_21_27
*322 FILLER_0_21_3
*323 FILLER_0_21_39
*324 FILLER_0_21_51
*325 FILLER_0_21_55
*326 FILLER_0_21_57
*327 FILLER_0_21_91
*328 FILLER_0_21_99
*329 FILLER_0_22_109
*330 FILLER_0_22_124
*331 FILLER_0_22_136
*332 FILLER_0_22_141
*333 FILLER_0_22_15
*334 FILLER_0_22_153
*335 FILLER_0_22_165
*336 FILLER_0_22_177
*337 FILLER_0_22_185
*338 FILLER_0_22_23
*339 FILLER_0_22_29
*340 FILLER_0_22_3
*341 FILLER_0_22_41
*342 FILLER_0_22_53
*343 FILLER_0_22_65
*344 FILLER_0_22_77
*345 FILLER_0_22_83
*346 FILLER_0_22_85
*347 FILLER_0_23_105
*348 FILLER_0_23_111
*349 FILLER_0_23_113
*350 FILLER_0_23_125
*351 FILLER_0_23_131
*352 FILLER_0_23_135
*353 FILLER_0_23_147
*354 FILLER_0_23_15
*355 FILLER_0_23_159
*356 FILLER_0_23_167
*357 FILLER_0_23_169
*358 FILLER_0_23_181
*359 FILLER_0_23_189
*360 FILLER_0_23_19
*361 FILLER_0_23_23
*362 FILLER_0_23_3
*363 FILLER_0_23_35
*364 FILLER_0_23_47
*365 FILLER_0_23_55
*366 FILLER_0_23_57
*367 FILLER_0_23_69
*368 FILLER_0_23_81
*369 FILLER_0_23_93
*370 FILLER_0_24_109
*371 FILLER_0_24_121
*372 FILLER_0_24_133
*373 FILLER_0_24_139
*374 FILLER_0_24_141
*375 FILLER_0_24_15
*376 FILLER_0_24_153
*377 FILLER_0_24_165
*378 FILLER_0_24_177
*379 FILLER_0_24_189
*380 FILLER_0_24_27
*381 FILLER_0_24_29
*382 FILLER_0_24_3
*383 FILLER_0_24_41
*384 FILLER_0_24_53
*385 FILLER_0_24_65
*386 FILLER_0_24_77
*387 FILLER_0_24_83
*388 FILLER_0_24_85
*389 FILLER_0_24_97
*390 FILLER_0_25_105
*391 FILLER_0_25_111
*392 FILLER_0_25_113
*393 FILLER_0_25_125
*394 FILLER_0_25_137
*395 FILLER_0_25_149
*396 FILLER_0_25_15
*397 FILLER_0_25_161
*398 FILLER_0_25_167
*399 FILLER_0_25_169
*400 FILLER_0_25_181
*401 FILLER_0_25_189
*402 FILLER_0_25_27
*403 FILLER_0_25_3
*404 FILLER_0_25_39
*405 FILLER_0_25_51
*406 FILLER_0_25_55
*407 FILLER_0_25_57
*408 FILLER_0_25_69
*409 FILLER_0_25_81
*410 FILLER_0_25_93
*411 FILLER_0_26_109
*412 FILLER_0_26_121
*413 FILLER_0_26_133
*414 FILLER_0_26_139
*415 FILLER_0_26_141
*416 FILLER_0_26_15
*417 FILLER_0_26_153
*418 FILLER_0_26_165
*419 FILLER_0_26_177
*420 FILLER_0_26_189
*421 FILLER_0_26_27
*422 FILLER_0_26_29
*423 FILLER_0_26_3
*424 FILLER_0_26_41
*425 FILLER_0_26_53
*426 FILLER_0_26_65
*427 FILLER_0_26_77
*428 FILLER_0_26_83
*429 FILLER_0_26_85
*430 FILLER_0_26_97
*431 FILLER_0_27_109
*432 FILLER_0_27_113
*433 FILLER_0_27_125
*434 FILLER_0_27_137
*435 FILLER_0_27_141
*436 FILLER_0_27_149
*437 FILLER_0_27_15
*438 FILLER_0_27_161
*439 FILLER_0_27_167
*440 FILLER_0_27_169
*441 FILLER_0_27_181
*442 FILLER_0_27_189
*443 FILLER_0_27_23
*444 FILLER_0_27_27
*445 FILLER_0_27_29
*446 FILLER_0_27_3
*447 FILLER_0_27_41
*448 FILLER_0_27_53
*449 FILLER_0_27_57
*450 FILLER_0_27_69
*451 FILLER_0_27_81
*452 FILLER_0_27_85
*453 FILLER_0_27_97
*454 FILLER_0_2_109
*455 FILLER_0_2_121
*456 FILLER_0_2_133
*457 FILLER_0_2_139
*458 FILLER_0_2_141
*459 FILLER_0_2_15
*460 FILLER_0_2_153
*461 FILLER_0_2_165
*462 FILLER_0_2_177
*463 FILLER_0_2_189
*464 FILLER_0_2_27
*465 FILLER_0_2_29
*466 FILLER_0_2_3
*467 FILLER_0_2_41
*468 FILLER_0_2_53
*469 FILLER_0_2_65
*470 FILLER_0_2_77
*471 FILLER_0_2_83
*472 FILLER_0_2_85
*473 FILLER_0_2_97
*474 FILLER_0_3_105
*475 FILLER_0_3_111
*476 FILLER_0_3_113
*477 FILLER_0_3_125
*478 FILLER_0_3_137
*479 FILLER_0_3_149
*480 FILLER_0_3_15
*481 FILLER_0_3_161
*482 FILLER_0_3_167
*483 FILLER_0_3_169
*484 FILLER_0_3_181
*485 FILLER_0_3_189
*486 FILLER_0_3_27
*487 FILLER_0_3_3
*488 FILLER_0_3_39
*489 FILLER_0_3_51
*490 FILLER_0_3_55
*491 FILLER_0_3_57
*492 FILLER_0_3_69
*493 FILLER_0_3_81
*494 FILLER_0_3_93
*495 FILLER_0_4_109
*496 FILLER_0_4_121
*497 FILLER_0_4_133
*498 FILLER_0_4_139
*499 FILLER_0_4_141
*500 FILLER_0_4_15
*501 FILLER_0_4_153
*502 FILLER_0_4_165
*503 FILLER_0_4_177
*504 FILLER_0_4_189
*505 FILLER_0_4_27
*506 FILLER_0_4_29
*507 FILLER_0_4_3
*508 FILLER_0_4_41
*509 FILLER_0_4_53
*510 FILLER_0_4_65
*511 FILLER_0_4_77
*512 FILLER_0_4_83
*513 FILLER_0_4_85
*514 FILLER_0_4_97
*515 FILLER_0_5_105
*516 FILLER_0_5_111
*517 FILLER_0_5_113
*518 FILLER_0_5_125
*519 FILLER_0_5_137
*520 FILLER_0_5_149
*521 FILLER_0_5_15
*522 FILLER_0_5_161
*523 FILLER_0_5_167
*524 FILLER_0_5_169
*525 FILLER_0_5_181
*526 FILLER_0_5_189
*527 FILLER_0_5_27
*528 FILLER_0_5_3
*529 FILLER_0_5_39
*530 FILLER_0_5_51
*531 FILLER_0_5_55
*532 FILLER_0_5_57
*533 FILLER_0_5_69
*534 FILLER_0_5_81
*535 FILLER_0_5_93
*536 FILLER_0_6_109
*537 FILLER_0_6_121
*538 FILLER_0_6_133
*539 FILLER_0_6_139
*540 FILLER_0_6_141
*541 FILLER_0_6_15
*542 FILLER_0_6_153
*543 FILLER_0_6_165
*544 FILLER_0_6_177
*545 FILLER_0_6_189
*546 FILLER_0_6_27
*547 FILLER_0_6_29
*548 FILLER_0_6_3
*549 FILLER_0_6_41
*550 FILLER_0_6_53
*551 FILLER_0_6_65
*552 FILLER_0_6_77
*553 FILLER_0_6_83
*554 FILLER_0_6_85
*555 FILLER_0_6_97
*556 FILLER_0_7_105
*557 FILLER_0_7_111
*558 FILLER_0_7_113
*559 FILLER_0_7_125
*560 FILLER_0_7_137
*561 FILLER_0_7_149
*562 FILLER_0_7_15
*563 FILLER_0_7_161
*564 FILLER_0_7_167
*565 FILLER_0_7_169
*566 FILLER_0_7_181
*567 FILLER_0_7_189
*568 FILLER_0_7_27
*569 FILLER_0_7_3
*570 FILLER_0_7_39
*571 FILLER_0_7_51
*572 FILLER_0_7_55
*573 FILLER_0_7_57
*574 FILLER_0_7_69
*575 FILLER_0_7_81
*576 FILLER_0_7_93
*577 FILLER_0_8_109
*578 FILLER_0_8_121
*579 FILLER_0_8_133
*580 FILLER_0_8_139
*581 FILLER_0_8_141
*582 FILLER_0_8_15
*583 FILLER_0_8_153
*584 FILLER_0_8_165
*585 FILLER_0_8_177
*586 FILLER_0_8_189
*587 FILLER_0_8_27
*588 FILLER_0_8_29
*589 FILLER_0_8_3
*590 FILLER_0_8_41
*591 FILLER_0_8_53
*592 FILLER_0_8_65
*593 FILLER_0_8_77
*594 FILLER_0_8_83
*595 FILLER_0_8_85
*596 FILLER_0_8_97
*597 FILLER_0_9_105
*598 FILLER_0_9_111
*599 FILLER_0_9_113
*600 FILLER_0_9_125
*601 FILLER_0_9_137
*602 FILLER_0_9_149
*603 FILLER_0_9_15
*604 FILLER_0_9_161
*605 FILLER_0_9_167
*606 FILLER_0_9_169
*607 FILLER_0_9_181
*608 FILLER_0_9_189
*609 FILLER_0_9_27
*610 FILLER_0_9_3
*611 FILLER_0_9_39
*612 FILLER_0_9_51
*613 FILLER_0_9_55
*614 FILLER_0_9_57
*615 FILLER_0_9_69
*616 FILLER_0_9_81
*617 FILLER_0_9_93
*618 PHY_0
*619 PHY_1
*620 PHY_10
*621 PHY_11
*622 PHY_12
*623 PHY_13
*624 PHY_14
*625 PHY_15
*626 PHY_16
*627 PHY_17
*628 PHY_18
*629 PHY_19
*630 PHY_2
*631 PHY_20
*632 PHY_21
*633 PHY_22
*634 PHY_23
*635 PHY_24
*636 PHY_25
*637 PHY_26
*638 PHY_27
*639 PHY_28
*640 PHY_29
*641 PHY_3
*642 PHY_30
*643 PHY_31
*644 PHY_32
*645 PHY_33
*646 PHY_34
*647 PHY_35
*648 PHY_36
*649 PHY_37
*650 PHY_38
*651 PHY_39
*652 PHY_4
*653 PHY_40
*654 PHY_41
*655 PHY_42
*656 PHY_43
*657 PHY_44
*658 PHY_45
*659 PHY_46
*660 PHY_47
*661 PHY_48
*662 PHY_49
*663 PHY_5
*664 PHY_50
*665 PHY_51
*666 PHY_52
*667 PHY_53
*668 PHY_54
*669 PHY_55
*670 PHY_6
*671 PHY_7
*672 PHY_8
*673 PHY_9
*674 TAP_100
*675 TAP_101
*676 TAP_102
*677 TAP_103
*678 TAP_104
*679 TAP_105
*680 TAP_106
*681 TAP_107
*682 TAP_108
*683 TAP_109
*684 TAP_110
*685 TAP_111
*686 TAP_112
*687 TAP_113
*688 TAP_114
*689 TAP_115
*690 TAP_116
*691 TAP_117
*692 TAP_118
*693 TAP_119
*694 TAP_120
*695 TAP_121
*696 TAP_122
*697 TAP_123
*698 TAP_124
*699 TAP_125
*700 TAP_126
*701 TAP_127
*702 TAP_128
*703 TAP_129
*704 TAP_130
*705 TAP_131
*706 TAP_132
*707 TAP_133
*708 TAP_134
*709 TAP_135
*710 TAP_136
*711 TAP_137
*712 TAP_138
*713 TAP_139
*714 TAP_140
*715 TAP_141
*716 TAP_142
*717 TAP_143
*718 TAP_144
*719 TAP_145
*720 TAP_56
*721 TAP_57
*722 TAP_58
*723 TAP_59
*724 TAP_60
*725 TAP_61
*726 TAP_62
*727 TAP_63
*728 TAP_64
*729 TAP_65
*730 TAP_66
*731 TAP_67
*732 TAP_68
*733 TAP_69
*734 TAP_70
*735 TAP_71
*736 TAP_72
*737 TAP_73
*738 TAP_74
*739 TAP_75
*740 TAP_76
*741 TAP_77
*742 TAP_78
*743 TAP_79
*744 TAP_80
*745 TAP_81
*746 TAP_82
*747 TAP_83
*748 TAP_84
*749 TAP_85
*750 TAP_86
*751 TAP_87
*752 TAP_88
*753 TAP_89
*754 TAP_90
*755 TAP_91
*756 TAP_92
*757 TAP_93
*758 TAP_94
*759 TAP_95
*760 TAP_96
*761 TAP_97
*762 TAP_98
*763 TAP_99
*764 _29_
*765 _30_
*766 _31_
*767 _32_
*768 _33_
*769 _34_
*770 _35_
*771 _36_
*772 _37_
*773 _38_
*774 _39_
*775 _40_
*776 _41_
*777 _42_
*778 _43_
*779 _44_
*780 _45_
*781 _46_
*782 _47_
*783 _48_
*784 _49_
*785 _50_
*786 _51_
*787 _52_
*788 _53_
*789 _54_
*790 _55_
*791 _56_
*792 _57_
*793 _58_
*794 _59_
*795 _60_
*796 _61_
*797 _62_
*798 _63_
*799 _64_
*800 _65_
*801 _66_
*802 _67_
*803 _68_
*804 _69_
*805 input1
*806 input2
*807 input3
*808 output4
*809 output5
*810 output6
*811 output7

*PORTS
clear I
clock I
hwy[0] O
hwy[1] O
road[0] O
road[1] O
x I

*D_NET *3 0.00064292
*CONN
*P clear I
*I *805:A I *D sky130_fd_sc_hd__clkbuf_2
*CAP
1 clear 0.00032146
2 *805:A 0.00032146
*RES
1 clear *805:A 49.3485 
*END

*D_NET *4 0.000870118
*CONN
*P clock I
*I *806:A I *D sky130_fd_sc_hd__clkbuf_2
*CAP
1 clock 0.000435059
2 *806:A 0.000435059
*RES
1 clock *806:A 47.5907 
*END

*D_NET *5 0.000554154
*CONN
*P hwy[0] O
*I *808:X O *D sky130_fd_sc_hd__clkbuf_4
*CAP
1 hwy[0] 0.000277077
2 *808:X 0.000277077
*RES
1 *808:X hwy[0] 49.5289 
*END

*D_NET *6 0.00149177
*CONN
*P hwy[1] O
*I *809:X O *D sky130_fd_sc_hd__clkbuf_4
*CAP
1 hwy[1] 0.000372805
2 *809:X 0.000373081
3 *6:8 0.000745886
*RES
1 *809:X *6:8 45.2914 
2 *6:8 hwy[1] 8.34786 
*END

*D_NET *7 0.0011072
*CONN
*P road[0] O
*I *810:X O *D sky130_fd_sc_hd__clkbuf_4
*CAP
1 road[0] 0.000553601
2 *810:X 0.000553601
*RES
1 *810:X road[0] 49.2064 
*END

*D_NET *8 0.00120323
*CONN
*P road[1] O
*I *811:X O *D sky130_fd_sc_hd__clkbuf_4
*CAP
1 road[1] 0.000573092
2 *811:X 0.000573092
3 road[1] *811:A 5.70419e-05
*RES
1 *811:X road[1] 49.6829 
*END

*D_NET *9 0.00070607
*CONN
*P x I
*I *807:A I *D sky130_fd_sc_hd__buf_1
*CAP
1 x 0.000353035
2 *807:A 0
3 *9:15 0.000353035
*RES
1 x *9:15 27.8162 
2 *9:15 *807:A 23 
*END

*D_NET *10 0.000336105
*CONN
*I *797:D I *D sky130_fd_sc_hd__dfxtp_1
*I *775:X O *D sky130_fd_sc_hd__a221o_1
*CAP
1 *797:D 0.000111882
2 *775:X 0.000111882
3 *797:D *797:CLK 5.50049e-05
4 *797:D *49:16 3.70838e-05
5 *797:D *49:28 2.02517e-05
*RES
1 *775:X *797:D 48.3873 
*END

*D_NET *11 0.000850474
*CONN
*I *798:D I *D sky130_fd_sc_hd__dfxtp_1
*I *768:X O *D sky130_fd_sc_hd__a32o_1
*CAP
1 *798:D 6.33428e-05
2 *768:X 0.000290397
3 *11:10 0.00035374
4 *11:10 *771:B 0
5 *11:10 *14:10 0
6 *11:10 *21:10 0
7 *11:10 *42:24 0
8 *11:10 *43:101 8.62876e-05
9 *11:10 *50:32 5.67058e-05
*RES
1 *768:X *11:10 42.9921 
2 *11:10 *798:D 38.9373 
*END

*D_NET *12 0.000575501
*CONN
*I *799:D I *D sky130_fd_sc_hd__dfxtp_1
*I *774:X O *D sky130_fd_sc_hd__a32o_1
*CAP
1 *799:D 6.76466e-05
2 *774:X 0.00019785
3 *12:10 0.000265497
4 *799:D *53:14 2.26185e-05
5 *12:10 *20:64 2.18888e-05
6 *12:10 *51:10 0
*RES
1 *774:X *12:10 41.2314 
2 *12:10 *799:D 39.1445 
*END

*D_NET *13 0.00128448
*CONN
*I *800:D I *D sky130_fd_sc_hd__dfxtp_2
*I *776:X O *D sky130_fd_sc_hd__a22o_1
*CAP
1 *800:D 0.0001169
2 *776:X 0.000165507
3 *13:8 0.000282407
4 *800:D *800:CLK 7.95762e-05
5 *800:D *52:8 0.000307525
6 *13:8 *19:42 2.14486e-05
7 *13:8 *43:58 1.16551e-05
8 *13:8 *52:14 0.000299461
*RES
1 *776:X *13:8 42.3707 
2 *13:8 *800:D 41.7959 
*END

*D_NET *14 0.000536559
*CONN
*I *801:D I *D sky130_fd_sc_hd__dfxtp_1
*I *772:X O *D sky130_fd_sc_hd__a32o_1
*CAP
1 *801:D 1.13183e-05
2 *772:X 0.000198654
3 *14:10 0.000209972
4 *801:D *799:CLK 1.64354e-05
5 *14:10 *53:46 0.00010018
6 *11:10 *14:10 0
*RES
1 *772:X *14:10 41.3557 
2 *14:10 *801:D 38.1916 
*END

*D_NET *15 0.000765726
*CONN
*I *802:D I *D sky130_fd_sc_hd__dfxtp_1
*I *789:X O *D sky130_fd_sc_hd__clkbuf_1
*CAP
1 *802:D 0.000297504
2 *789:X 8.53588e-05
3 *15:8 0.000382863
4 *15:8 *39:10 0
*RES
1 *789:X *15:8 39.2014 
2 *15:8 *802:D 43.6809 
*END

*D_NET *16 0.000376487
*CONN
*I *803:D I *D sky130_fd_sc_hd__dfxtp_1
*I *794:X O *D sky130_fd_sc_hd__clkbuf_1
*CAP
1 *803:D 7.71713e-05
2 *794:X 9.65215e-05
3 *16:8 0.000173693
4 *803:D *43:24 2.91013e-05
*RES
1 *794:X *16:8 39.5536 
2 *16:8 *803:D 39.4137 
*END

*D_NET *17 0.000573225
*CONN
*I *804:D I *D sky130_fd_sc_hd__dfxtp_1
*I *796:Y O *D sky130_fd_sc_hd__a21oi_1
*CAP
1 *804:D 0.000165055
2 *796:Y 0.000121557
3 *17:8 0.000286612
*RES
1 *796:Y *17:8 40.2579 
2 *17:8 *804:D 41.0502 
*END

*D_NET *18 0.00393183
*CONN
*I *768:A1 I *D sky130_fd_sc_hd__a32o_1
*I *770:A I *D sky130_fd_sc_hd__and2_1
*I *774:A1 I *D sky130_fd_sc_hd__a32o_1
*I *795:B1 I *D sky130_fd_sc_hd__o21ai_1
*I *764:Y O *D sky130_fd_sc_hd__inv_2
*CAP
1 *768:A1 0
2 *770:A 0
3 *774:A1 0
4 *795:B1 0.000349219
5 *764:Y 0
6 *18:53 0.000176358
7 *18:35 0.000392631
8 *18:25 0.000862772
9 *18:6 0.00081936
10 *18:4 0.000176358
11 *795:B1 *776:A2 0
12 *795:B1 *20:12 0.000100717
13 *795:B1 *20:54 5.0896e-05
14 *18:25 *772:A3 0.000125634
15 *18:25 *772:B1 0.000161089
16 *18:25 *50:32 2.01531e-05
17 *18:25 *51:57 3.6486e-05
18 *18:25 *53:46 3.20424e-05
19 *18:35 *53:46 0.000358424
20 *18:53 *776:A2 0.000110922
21 *18:53 *787:B1 5.58003e-05
22 *18:53 *42:34 0.000102971
*RES
1 *764:Y *18:4 23 
2 *18:4 *18:6 15 
3 *18:6 *795:B1 44.8357 
4 *18:6 *18:25 23.0579 
5 *18:25 *18:35 36.3593 
6 *18:35 *774:A1 23 
7 *18:25 *770:A 23 
8 *18:4 *18:53 33.1279 
9 *18:53 *768:A1 23 
*END

*D_NET *19 0.00433139
*CONN
*I *775:A1 I *D sky130_fd_sc_hd__a221o_1
*I *771:B I *D sky130_fd_sc_hd__nor2_1
*I *768:A2 I *D sky130_fd_sc_hd__a32o_1
*I *765:Y O *D sky130_fd_sc_hd__inv_2
*CAP
1 *775:A1 0
2 *771:B 0.00015297
3 *768:A2 7.61136e-05
4 *765:Y 0.000543479
5 *19:42 0.00017227
6 *19:12 0.000699744
7 *19:6 0.00118641
8 *768:A2 *768:A3 0
9 *768:A2 *768:B1 2.39868e-05
10 *768:A2 *772:B1 6.3739e-05
11 *768:A2 *775:B2 1.14154e-05
12 *768:A2 *50:32 7.4416e-05
13 *768:A2 *50:78 2.77232e-05
14 *771:B *767:B 3.91386e-05
15 *771:B *21:10 0.000337909
16 *771:B *42:20 6.00453e-05
17 *771:B *42:24 9.28842e-05
18 *771:B *43:73 2.98648e-05
19 *19:6 *765:A 3.42479e-05
20 *19:12 *776:A2 0.000160907
21 *19:12 *21:10 6.16531e-05
22 *19:12 *42:24 1.37349e-05
23 *19:12 *42:34 6.6869e-05
24 *19:12 *49:28 0
25 *19:42 *776:B1 0.000165277
26 *19:42 *20:20 0.000215144
27 *11:10 *771:B 0
28 *13:8 *19:42 2.14486e-05
*RES
1 *765:Y *19:6 29.815 
2 *19:6 *19:12 23.0786 
3 *19:12 *768:A2 40.0714 
4 *19:12 *771:B 43.1579 
5 *19:6 *19:42 34.3707 
6 *19:42 *775:A1 23 
*END

*D_NET *20 0.00757513
*CONN
*I *787:A1 I *D sky130_fd_sc_hd__a21oi_1
*I *774:A3 I *D sky130_fd_sc_hd__a32o_1
*I *767:B I *D sky130_fd_sc_hd__nor2_1
*I *775:B1 I *D sky130_fd_sc_hd__a221o_1
*I *766:Y O *D sky130_fd_sc_hd__nor3b_2
*CAP
1 *787:A1 0
2 *774:A3 0
3 *767:B 0.000151977
4 *775:B1 8.7295e-05
5 *766:Y 0.000183139
6 *20:64 0.000344011
7 *20:54 0.00130107
8 *20:20 0.000825559
9 *20:12 0.00172648
10 *767:B *21:10 1.32314e-05
11 *767:B *24:14 0.000121308
12 *767:B *42:20 9.28753e-05
13 *767:B *43:73 0
14 *767:B *50:18 5.30687e-05
15 *775:B1 *775:B2 4.74892e-06
16 *775:B1 *49:16 4.55961e-05
17 *775:B1 *49:28 2.91434e-05
18 *775:B1 *50:18 5.12254e-05
19 *775:B1 *50:78 0
20 *20:12 *39:45 5.27659e-05
21 *20:12 *50:32 3.67392e-05
22 *20:20 *776:B1 7.37814e-06
23 *20:20 *24:14 5.14286e-05
24 *20:20 *43:58 0
25 *20:20 *43:73 0
26 *20:20 *52:14 4.89276e-05
27 *20:20 *52:20 0.0005819
28 *20:54 *787:B1 0.00119218
29 *20:54 *50:32 0.000101952
30 *20:64 *774:A2 0
31 *20:64 *51:10 4.334e-05
32 *771:B *767:B 3.91386e-05
33 *795:B1 *20:12 0.000100717
34 *795:B1 *20:54 5.0896e-05
35 *12:10 *20:64 2.18888e-05
36 *19:42 *20:20 0.000215144
*RES
1 *766:Y *20:12 42.0807 
2 *20:12 *20:20 40.8336 
3 *20:20 *775:B1 40.0921 
4 *20:20 *767:B 41.9979 
5 *20:12 *20:54 30.515 
6 *20:54 *20:64 36.4836 
7 *20:64 *774:A3 23 
8 *20:54 *787:A1 23 
*END

*D_NET *21 0.00240879
*CONN
*I *768:B1 I *D sky130_fd_sc_hd__a32o_1
*I *776:A2 I *D sky130_fd_sc_hd__a22o_1
*I *767:Y O *D sky130_fd_sc_hd__nor2_1
*CAP
1 *768:B1 1.04715e-05
2 *776:A2 0.000297992
3 *767:Y 0.000270777
4 *21:10 0.00057924
5 *768:B1 *772:B1 2.39868e-05
6 *776:A2 *776:A1 1.12796e-05
7 *776:A2 *42:34 0.000138946
8 *776:A2 *49:28 5.5792e-05
9 *776:A2 *52:14 2.64616e-05
10 *776:A2 *52:20 0.000208182
11 *21:10 *24:14 5.67058e-05
12 *21:10 *42:20 1.22822e-05
13 *21:10 *43:73 8.06804e-06
14 *21:10 *50:32 0
15 *767:B *21:10 1.32314e-05
16 *768:A2 *768:B1 2.39868e-05
17 *771:B *21:10 0.000337909
18 *795:B1 *776:A2 0
19 *11:10 *21:10 0
20 *18:53 *776:A2 0.000110922
21 *19:12 *776:A2 0.000160907
22 *19:12 *21:10 6.16531e-05
*RES
1 *767:Y *21:10 43.9657 
2 *21:10 *776:A2 45.3536 
3 *21:10 *768:B1 38.2796 
*END

*D_NET *22 0.00116373
*CONN
*I *772:A2 I *D sky130_fd_sc_hd__a32o_1
*I *769:Y O *D sky130_fd_sc_hd__nor2_1
*CAP
1 *772:A2 0
2 *769:Y 0.000389535
3 *22:10 0.000389535
4 *22:10 *766:A 2.39778e-06
5 *22:10 *766:C_N 3.46302e-05
6 *22:10 *39:39 3.46302e-05
7 *22:10 *39:45 0.000312997
8 *22:10 *51:57 0
*RES
1 *769:Y *22:10 44.8979 
2 *22:10 *772:A2 38 
*END

*D_NET *23 0.000962505
*CONN
*I *772:A3 I *D sky130_fd_sc_hd__a32o_1
*I *774:B2 I *D sky130_fd_sc_hd__a32o_1
*I *770:X O *D sky130_fd_sc_hd__and2_1
*CAP
1 *772:A3 0.000128291
2 *774:B2 2.9043e-05
3 *770:X 0
4 *23:4 0.000157334
5 *772:A3 *768:A3 0
6 *772:A3 *51:57 5.88496e-05
7 *772:A3 *53:46 0.000405397
8 *774:B2 *53:46 5.79559e-05
9 *18:25 *772:A3 0.000125634
*RES
1 *770:X *23:4 23 
2 *23:4 *774:B2 23.6214 
3 *23:4 *772:A3 27.93 
*END

*D_NET *24 0.00257224
*CONN
*I *776:B1 I *D sky130_fd_sc_hd__a22o_1
*I *772:B1 I *D sky130_fd_sc_hd__a32o_1
*I *771:Y O *D sky130_fd_sc_hd__nor2_1
*CAP
1 *776:B1 7.10968e-05
2 *772:B1 0.000413043
3 *771:Y 0.000226946
4 *24:14 0.000711085
5 *772:B1 *768:A3 0.000143655
6 *772:B1 *775:B2 9.58714e-05
7 *772:B1 *42:34 4.77554e-05
8 *772:B1 *49:28 1.01436e-05
9 *772:B1 *50:32 1.97239e-05
10 *772:B1 *53:46 2.1037e-05
11 *776:B1 *49:28 0.000136273
12 *24:14 *42:24 1.9574e-05
13 *24:14 *42:34 5.11935e-06
14 *767:B *24:14 0.000121308
15 *768:A2 *772:B1 6.3739e-05
16 *768:B1 *772:B1 2.39868e-05
17 *18:25 *772:B1 0.000161089
18 *19:42 *776:B1 0.000165277
19 *20:20 *776:B1 7.37814e-06
20 *20:20 *24:14 5.14286e-05
21 *21:10 *24:14 5.67058e-05
*RES
1 *771:Y *24:14 42.2982 
2 *24:14 *772:B1 46.0371 
3 *24:14 *776:B1 40.4339 
*END

*D_NET *25 0.00161434
*CONN
*I *774:B1 I *D sky130_fd_sc_hd__a32o_1
*I *791:C I *D sky130_fd_sc_hd__or4b_1
*I *773:X O *D sky130_fd_sc_hd__or3b_1
*CAP
1 *774:B1 0.000373735
2 *791:C 8.8223e-05
3 *773:X 0.00014238
4 *25:8 0.000604338
5 *774:B1 *774:A2 4.14538e-05
6 *774:B1 *52:30 5.65509e-05
7 *774:B1 *53:46 1.03792e-05
8 *791:C *791:D_N 0.000144494
9 *791:C *51:32 0.000152787
*RES
1 *773:X *25:8 39.9057 
2 *25:8 *791:C 41.0036 
3 *25:8 *774:B1 43.8104 
*END

*D_NET *26 0.000650021
*CONN
*I *778:A I *D sky130_fd_sc_hd__clkbuf_1
*I *777:X O *D sky130_fd_sc_hd__clkbuf_1
*CAP
1 *778:A 0.000122112
2 *777:X 0.000202898
3 *26:10 0.00032501
*RES
1 *777:X *26:10 40.8793 
2 *26:10 *778:A 40.0507 
*END

*D_NET *27 0.00102695
*CONN
*I *780:A I *D sky130_fd_sc_hd__clkbuf_1
*I *779:X O *D sky130_fd_sc_hd__clkbuf_1
*CAP
1 *780:A 0
2 *779:X 0.00039846
3 *27:10 0.00039846
4 *27:10 *42:6 0.000230025
*RES
1 *779:X *27:10 44.6907 
2 *27:10 *780:A 38 
*END

*D_NET *28 0.00123469
*CONN
*I *787:A2 I *D sky130_fd_sc_hd__a21oi_1
*I *786:C I *D sky130_fd_sc_hd__or3_1
*I *782:C I *D sky130_fd_sc_hd__nor3_1
*I *781:X O *D sky130_fd_sc_hd__or2_1
*CAP
1 *787:A2 3.48493e-05
2 *786:C 0
3 *782:C 7.05624e-05
4 *781:X 0
5 *28:17 0.000369006
6 *28:4 0.000404719
7 *782:C *782:B 0.00010766
8 *787:A2 *782:B 6.17437e-06
9 *28:17 *782:B 0.000106344
10 *28:17 *786:A 7.95762e-05
11 *28:17 *50:56 5.58003e-05
*RES
1 *781:X *28:4 23 
2 *28:4 *782:C 25.0507 
3 *28:4 *28:17 6.85643 
4 *28:17 *786:C 23 
5 *28:17 *787:A2 23.6214 
*END

*D_NET *29 0.00583309
*CONN
*I *784:A I *D sky130_fd_sc_hd__clkbuf_1
*I *783:X O *D sky130_fd_sc_hd__buf_1
*CAP
1 *784:A 0
2 *783:X 0
3 *29:12 0.000835379
4 *29:8 0.00291655
5 *29:6 0.00208117
*RES
1 *783:X *29:6 38 
2 *29:6 *29:8 41.3457 
3 *29:8 *29:12 29.9143 
4 *29:12 *784:A 23 
*END

*D_NET *30 0.00150629
*CONN
*I *788:A_N I *D sky130_fd_sc_hd__and3b_1
*I *792:B I *D sky130_fd_sc_hd__or2_1
*I *785:X O *D sky130_fd_sc_hd__o31a_1
*CAP
1 *788:A_N 7.91257e-05
2 *792:B 0.000477448
3 *785:X 6.7534e-05
4 *30:8 0.000624108
5 *792:B *783:A 0.000189848
6 *792:B *792:A 5.5792e-05
7 *792:B *39:20 1.24376e-05
*RES
1 *785:X *30:8 39.2014 
2 *30:8 *792:B 46.5964 
3 *30:8 *788:A_N 39.4707 
*END

*D_NET *31 0.00139557
*CONN
*I *788:B I *D sky130_fd_sc_hd__and3b_1
*I *786:X O *D sky130_fd_sc_hd__or3_1
*CAP
1 *788:B 0
2 *786:X 0.000373899
3 *31:14 0.000373899
4 *31:14 *781:B 8.21534e-05
5 *31:14 *782:B 0.000142678
6 *31:14 *783:A 0.000228736
7 *31:14 *786:A 3.73465e-05
8 *31:14 *790:C1 8.18895e-05
9 *31:14 *33:8 5.75756e-06
10 *31:14 *39:87 2.26497e-05
11 *31:14 *52:36 1.36963e-05
12 *31:14 *52:40 3.2865e-05
*RES
1 *786:X *31:14 46.12 
2 *31:14 *788:B 38 
*END

*D_NET *32 0.00166028
*CONN
*I *793:B I *D sky130_fd_sc_hd__and4b_1
*I *788:C I *D sky130_fd_sc_hd__and3b_1
*I *787:Y O *D sky130_fd_sc_hd__a21oi_1
*CAP
1 *793:B 0
2 *788:C 0.000266794
3 *787:Y 0.000248477
4 *32:12 0.000301744
5 *32:8 0.000283427
6 *788:C *793:A_N 0.000100477
7 *788:C *34:25 5.58003e-05
8 *788:C *40:20 4.19157e-05
9 *32:8 *786:A 0
10 *32:8 *35:8 8.57577e-05
11 *32:8 *39:57 0
12 *32:8 *50:40 4.13477e-05
13 *32:12 *793:C 0.000100477
14 *32:12 *34:25 0.000134056
*RES
1 *787:Y *32:8 42.3707 
2 *32:8 *32:12 16.5743 
3 *32:12 *788:C 27.4329 
4 *32:12 *793:B 23 
*END

*D_NET *33 0.000993332
*CONN
*I *789:A I *D sky130_fd_sc_hd__clkbuf_1
*I *788:X O *D sky130_fd_sc_hd__and3b_1
*CAP
1 *789:A 0.00021557
2 *788:X 0.000158152
3 *33:8 0.000373722
4 *33:8 *783:A 4.9171e-05
5 *33:8 *792:A 8.78864e-05
6 *33:8 *39:10 4.22436e-05
7 *33:8 *39:57 6.08303e-05
8 *31:14 *33:8 5.75756e-06
*RES
1 *788:X *33:8 42.0186 
2 *33:8 *789:A 41.8529 
*END

*D_NET *34 0.00346662
*CONN
*I *795:A2 I *D sky130_fd_sc_hd__o21ai_1
*I *796:A2 I *D sky130_fd_sc_hd__a21oi_1
*I *793:A_N I *D sky130_fd_sc_hd__and4b_1
*I *790:X O *D sky130_fd_sc_hd__o311a_1
*CAP
1 *795:A2 0
2 *796:A2 0.000190078
3 *793:A_N 1.96404e-05
4 *790:X 0.00017259
5 *34:25 0.000694325
6 *34:12 0.000523887
7 *34:10 0.00017259
8 *793:A_N *40:20 5.76359e-05
9 *796:A2 *796:A1 0.000125059
10 *34:10 *50:42 2.95526e-05
11 *34:25 *773:A 3.4394e-05
12 *34:25 *793:C 2.50118e-05
13 *34:25 *793:D 6.79431e-05
14 *34:25 *796:A1 5.82853e-05
15 *34:25 *39:24 0.000100231
16 *34:25 *39:39 0.000174926
17 *34:25 *40:14 0.000230046
18 *34:25 *40:20 0.000387365
19 *34:25 *41:12 7.19537e-05
20 *34:25 *41:53 4.07777e-05
21 *788:C *793:A_N 0.000100477
22 *788:C *34:25 5.58003e-05
23 *32:12 *34:25 0.000134056
*RES
1 *790:X *34:10 40.5271 
2 *34:10 *34:12 15 
3 *34:12 *793:A_N 24.0979 
4 *34:12 *34:25 15.5564 
5 *34:25 *796:A2 27.35 
6 *34:25 *795:A2 23 
*END

*D_NET *35 0.000537199
*CONN
*I *793:C I *D sky130_fd_sc_hd__and4b_1
*I *791:X O *D sky130_fd_sc_hd__or4b_1
*CAP
1 *793:C 0.000104213
2 *791:X 5.8763e-05
3 *35:8 0.000162976
4 *32:8 *35:8 8.57577e-05
5 *32:12 *793:C 0.000100477
6 *34:25 *793:C 2.50118e-05
*RES
1 *791:X *35:8 39.2014 
2 *35:8 *793:C 39.5743 
*END

*D_NET *36 0.000581147
*CONN
*I *793:D I *D sky130_fd_sc_hd__and4b_1
*I *792:X O *D sky130_fd_sc_hd__or2_1
*CAP
1 *793:D 1.65979e-05
2 *792:X 0.000182653
3 *36:10 0.000199251
4 *793:D *40:20 6.79431e-05
5 *36:10 *37:8 2.14486e-05
6 *36:10 *39:20 2.53095e-05
7 *34:25 *793:D 6.79431e-05
*RES
1 *792:X *36:10 41.0036 
2 *36:10 *793:D 38.7509 
*END

*D_NET *37 0.000443705
*CONN
*I *794:A I *D sky130_fd_sc_hd__clkbuf_1
*I *793:X O *D sky130_fd_sc_hd__and4b_1
*CAP
1 *794:A 8.54697e-05
2 *793:X 7.41734e-05
3 *37:8 0.000159643
4 *794:A *39:20 0.000102971
5 *36:10 *37:8 2.14486e-05
*RES
1 *793:X *37:8 39.2014 
2 *37:8 *794:A 40.2993 
*END

*D_NET *38 0.000121832
*CONN
*I *796:B1 I *D sky130_fd_sc_hd__a21oi_1
*I *795:Y O *D sky130_fd_sc_hd__o21ai_1
*CAP
1 *796:B1 3.30156e-05
2 *795:Y 3.30156e-05
3 *796:B1 *796:A1 5.58003e-05
*RES
1 *795:Y *796:B1 46.6214 
*END

*D_NET *39 0.00720635
*CONN
*I *785:B1 I *D sky130_fd_sc_hd__o31a_1
*I *786:A I *D sky130_fd_sc_hd__or3_1
*I *790:B1 I *D sky130_fd_sc_hd__o311a_1
*I *766:B I *D sky130_fd_sc_hd__nor3b_2
*I *772:A1 I *D sky130_fd_sc_hd__a32o_1
*I *773:C_N I *D sky130_fd_sc_hd__or3b_1
*I *802:Q O *D sky130_fd_sc_hd__dfxtp_1
*CAP
1 *785:B1 0
2 *786:A 0.00020364
3 *790:B1 0
4 *766:B 0