* NGSPICE file created from trafficlight_controller.ext - technology: sky130A

* Black-box entry subcircuit for sky130_ef_sc_hd__decap_12 abstract view
.subckt sky130_ef_sc_hd__decap_12 VPWR VGND VPB VNB
.ends

* Black-box entry subcircuit for sky130_fd_sc_hd__decap_4 abstract view
.subckt sky130_fd_sc_hd__decap_4 VGND VNB VPB VPWR
.ends

* Black-box entry subcircuit for sky130_fd_sc_hd__fill_1 abstract view
.subckt sky130_fd_sc_hd__fill_1 VGND VNB VPB VPWR
.ends

* Black-box entry subcircuit for sky130_fd_sc_hd__dfxtp_1 abstract view
.subckt sky130_fd_sc_hd__dfxtp_1 CLK D VGND VNB VPB VPWR Q
.ends

* Black-box entry subcircuit for sky130_fd_sc_hd__clkbuf_1 abstract view
.subckt sky130_fd_sc_hd__clkbuf_1 A VGND VNB VPB VPWR X
.ends

* Black-box entry subcircuit for sky130_fd_sc_hd__decap_6 abstract view
.subckt sky130_fd_sc_hd__decap_6 VGND VNB VPB VPWR
.ends

* Black-box entry subcircuit for sky130_fd_sc_hd__clkbuf_4 abstract view
.subckt sky130_fd_sc_hd__clkbuf_4 A VGND VNB VPB VPWR X
.ends

* Black-box entry subcircuit for sky130_fd_sc_hd__tapvpwrvgnd_1 abstract view
.subckt sky130_fd_sc_hd__tapvpwrvgnd_1 VGND VPWR
.ends

* Black-box entry subcircuit for sky130_fd_sc_hd__dfxtp_2 abstract view
.subckt sky130_fd_sc_hd__dfxtp_2 CLK D VGND VNB VPB VPWR Q
.ends

* Black-box entry subcircuit for sky130_fd_sc_hd__decap_8 abstract view
.subckt sky130_fd_sc_hd__decap_8 VGND VNB VPB VPWR
.ends

* Black-box entry subcircuit for sky130_fd_sc_hd__buf_1 abstract view
.subckt sky130_fd_sc_hd__buf_1 A VGND VNB VPB VPWR X
.ends

* Black-box entry subcircuit for sky130_fd_sc_hd__nor3_1 abstract view
.subckt sky130_fd_sc_hd__nor3_1 A B C VGND VNB VPB VPWR Y
.ends

* Black-box entry subcircuit for sky130_fd_sc_hd__or2_1 abstract view
.subckt sky130_fd_sc_hd__or2_1 A B VGND VNB VPB VPWR X
.ends

* Black-box entry subcircuit for sky130_fd_sc_hd__inv_2 abstract view
.subckt sky130_fd_sc_hd__inv_2 A VGND VNB VPB VPWR Y
.ends

* Black-box entry subcircuit for sky130_fd_sc_hd__decap_3 abstract view
.subckt sky130_fd_sc_hd__decap_3 VGND VNB VPB VPWR
.ends

* Black-box entry subcircuit for sky130_fd_sc_hd__fill_2 abstract view
.subckt sky130_fd_sc_hd__fill_2 VGND VNB VPB VPWR
.ends

* Black-box entry subcircuit for sky130_fd_sc_hd__a21oi_1 abstract view
.subckt sky130_fd_sc_hd__a21oi_1 A1 A2 B1 VGND VNB VPB VPWR Y
.ends

* Black-box entry subcircuit for sky130_fd_sc_hd__o21ai_1 abstract view
.subckt sky130_fd_sc_hd__o21ai_1 A1 A2 B1 VGND VNB VPB VPWR Y
.ends

* Black-box entry subcircuit for sky130_fd_sc_hd__a22o_1 abstract view
.subckt sky130_fd_sc_hd__a22o_1 A1 A2 B1 B2 VGND VNB VPB VPWR X
.ends

* Black-box entry subcircuit for sky130_fd_sc_hd__a221o_1 abstract view
.subckt sky130_fd_sc_hd__a221o_1 A1 A2 B1 B2 C1 VGND VNB VPB VPWR X
.ends

* Black-box entry subcircuit for sky130_fd_sc_hd__clkbuf_2 abstract view
.subckt sky130_fd_sc_hd__clkbuf_2 A VGND VNB VPB VPWR X
.ends

* Black-box entry subcircuit for sky130_fd_sc_hd__and4b_1 abstract view
.subckt sky130_fd_sc_hd__and4b_1 A_N B C D VGND VNB VPB VPWR X
.ends

* Black-box entry subcircuit for sky130_fd_sc_hd__or4b_1 abstract view
.subckt sky130_fd_sc_hd__or4b_1 A B C D_N VGND VNB VPB VPWR X
.ends

* Black-box entry subcircuit for sky130_fd_sc_hd__a32o_1 abstract view
.subckt sky130_fd_sc_hd__a32o_1 A1 A2 A3 B1 B2 VGND VNB VPB VPWR X
.ends

* Black-box entry subcircuit for sky130_fd_sc_hd__o311a_1 abstract view
.subckt sky130_fd_sc_hd__o311a_1 A1 A2 A3 B1 C1 VGND VNB VPB VPWR X
.ends

* Black-box entry subcircuit for sky130_fd_sc_hd__or3b_1 abstract view
.subckt sky130_fd_sc_hd__or3b_1 A B C_N VGND VNB VPB VPWR X
.ends

* Black-box entry subcircuit for sky130_fd_sc_hd__and3b_1 abstract view
.subckt sky130_fd_sc_hd__and3b_1 A_N B C VGND VNB VPB VPWR X
.ends

* Black-box entry subcircuit for sky130_fd_sc_hd__nor2_1 abstract view
.subckt sky130_fd_sc_hd__nor2_1 A B VGND VNB VPB VPWR Y
.ends

* Black-box entry subcircuit for sky130_fd_sc_hd__and2_1 abstract view
.subckt sky130_fd_sc_hd__and2_1 A B VGND VNB VPB VPWR X
.ends

* Black-box entry subcircuit for sky130_fd_sc_hd__or3_1 abstract view
.subckt sky130_fd_sc_hd__or3_1 A B C VGND VNB VPB VPWR X
.ends

* Black-box entry subcircuit for sky130_fd_sc_hd__o31a_1 abstract view
.subckt sky130_fd_sc_hd__o31a_1 A1 A2 A3 B1 VGND VNB VPB VPWR X
.ends

* Black-box entry subcircuit for sky130_fd_sc_hd__nor3b_2 abstract view
.subckt sky130_fd_sc_hd__nor3b_2 A B C_N VGND VNB VPB VPWR Y
.ends

.subckt trafficlight_controller VGND VPWR clear clock hwy[0] hwy[1] road[0] road[1]
+ x
XFILLER_0_7_81 VPWR VGND VPWR VGND sky130_ef_sc_hd__decap_12
XFILLER_0_3_39 VPWR VGND VPWR VGND sky130_ef_sc_hd__decap_12
XFILLER_0_13_51 VGND VGND VPWR VPWR sky130_fd_sc_hd__decap_4
XFILLER_0_18_29 VPWR VGND VPWR VGND sky130_ef_sc_hd__decap_12
XFILLER_0_24_83 VGND VGND VPWR VPWR sky130_fd_sc_hd__fill_1
X_66_ net2 _04_ VGND VGND VPWR VPWR state\[4\] sky130_fd_sc_hd__dfxtp_1
XFILLER_0_0_29 VPWR VGND VPWR VGND sky130_ef_sc_hd__decap_12
XFILLER_0_9_27 VPWR VGND VPWR VGND sky130_ef_sc_hd__decap_12
XFILLER_0_10_41 VPWR VGND VPWR VGND sky130_ef_sc_hd__decap_12
XFILLER_0_10_85 VPWR VGND VPWR VGND sky130_ef_sc_hd__decap_12
XFILLER_0_19_169 VPWR VGND VPWR VGND sky130_ef_sc_hd__decap_12
XFILLER_0_19_125 VPWR VGND VPWR VGND sky130_ef_sc_hd__decap_12
X_49_ _19_ VGND VGND VPWR VPWR net5 sky130_fd_sc_hd__clkbuf_1
XFILLER_0_21_51 VGND VGND VPWR VPWR sky130_fd_sc_hd__decap_4
XFILLER_0_16_117 VPWR VGND VPWR VGND sky130_ef_sc_hd__decap_12
XFILLER_0_26_29 VPWR VGND VPWR VGND sky130_ef_sc_hd__decap_12
XFILLER_0_22_109 VPWR VGND VPWR VGND sky130_ef_sc_hd__decap_12
XFILLER_0_15_161 VGND VGND VPWR VPWR sky130_fd_sc_hd__decap_6
XFILLER_0_16_62 VGND VGND VPWR VPWR sky130_fd_sc_hd__decap_6
XFILLER_0_12_153 VPWR VGND VPWR VGND sky130_ef_sc_hd__decap_12
Xoutput7 net7 VGND VGND VPWR VPWR road[1] sky130_fd_sc_hd__clkbuf_4
XTAP_145 VGND VPWR sky130_fd_sc_hd__tapvpwrvgnd_1
XTAP_134 VGND VPWR sky130_fd_sc_hd__tapvpwrvgnd_1
XTAP_123 VGND VPWR sky130_fd_sc_hd__tapvpwrvgnd_1
XTAP_112 VGND VPWR sky130_fd_sc_hd__tapvpwrvgnd_1
XFILLER_0_7_93 VPWR VGND VPWR VGND sky130_ef_sc_hd__decap_12
XTAP_101 VGND VPWR sky130_fd_sc_hd__tapvpwrvgnd_1
XFILLER_0_23_19 VGND VGND VPWR VPWR sky130_fd_sc_hd__fill_1
XFILLER_0_2_109 VPWR VGND VPWR VGND sky130_ef_sc_hd__decap_12
X_65_ net2 _03_ VGND VGND VPWR VPWR state\[3\] sky130_fd_sc_hd__dfxtp_2
XFILLER_0_4_83 VGND VGND VPWR VPWR sky130_fd_sc_hd__fill_1
XFILLER_0_9_39 VPWR VGND VPWR VGND sky130_ef_sc_hd__decap_12
XFILLER_0_27_181 VGND VGND VPWR VPWR sky130_fd_sc_hd__decap_8
XFILLER_0_19_137 VPWR VGND VPWR VGND sky130_ef_sc_hd__decap_12
X_48_ state\[3\] VGND VGND VPWR VPWR _19_ sky130_fd_sc_hd__buf_1
XFILLER_0_10_53 VPWR VGND VPWR VGND sky130_ef_sc_hd__decap_12
XFILLER_0_10_97 VPWR VGND VPWR VGND sky130_ef_sc_hd__decap_12
XFILLER_0_16_129 VGND VGND VPWR VPWR sky130_fd_sc_hd__decap_8
XFILLER_0_27_3 VPWR VGND VPWR VGND sky130_ef_sc_hd__decap_12
XFILLER_0_16_85 VGND VGND VPWR VPWR sky130_fd_sc_hd__decap_4
XFILLER_0_6_29 VPWR VGND VPWR VGND sky130_ef_sc_hd__decap_12
XFILLER_0_12_121 VPWR VGND VPWR VGND sky130_ef_sc_hd__decap_12
XFILLER_0_12_165 VPWR VGND VPWR VGND sky130_ef_sc_hd__decap_12
XFILLER_0_7_181 VGND VGND VPWR VPWR sky130_fd_sc_hd__decap_8
XTAP_135 VGND VPWR sky130_fd_sc_hd__tapvpwrvgnd_1
XTAP_124 VGND VPWR sky130_fd_sc_hd__tapvpwrvgnd_1
XTAP_113 VGND VPWR sky130_fd_sc_hd__tapvpwrvgnd_1
XTAP_102 VGND VPWR sky130_fd_sc_hd__tapvpwrvgnd_1
X_64_ net2 _02_ VGND VGND VPWR VPWR state\[2\] sky130_fd_sc_hd__dfxtp_1
XFILLER_0_24_85 VPWR VGND VPWR VGND sky130_ef_sc_hd__decap_12
XFILLER_0_24_41 VPWR VGND VPWR VGND sky130_ef_sc_hd__decap_12
XFILLER_0_19_149 VPWR VGND VPWR VGND sky130_ef_sc_hd__decap_12
XFILLER_0_19_96 VGND VGND VPWR VPWR sky130_fd_sc_hd__decap_6
X_47_ state\[4\] state\[2\] _18_ VGND VGND VPWR VPWR net4 sky130_fd_sc_hd__nor3_1
XFILLER_0_10_65 VPWR VGND VPWR VGND sky130_ef_sc_hd__decap_12
XFILLER_0_24_141 VPWR VGND VPWR VGND sky130_ef_sc_hd__decap_12
XFILLER_0_21_111 VGND VGND VPWR VPWR sky130_fd_sc_hd__fill_1
XFILLER_0_12_133 VGND VGND VPWR VPWR sky130_fd_sc_hd__decap_6
XFILLER_0_12_177 VPWR VGND VPWR VGND sky130_ef_sc_hd__decap_12
XFILLER_0_9_3 VPWR VGND VPWR VGND sky130_ef_sc_hd__decap_12
XFILLER_0_27_85 VPWR VGND VPWR VGND sky130_ef_sc_hd__decap_12
XFILLER_0_27_41 VPWR VGND VPWR VGND sky130_ef_sc_hd__decap_12
XTAP_136 VGND VPWR sky130_fd_sc_hd__tapvpwrvgnd_1
XTAP_125 VGND VPWR sky130_fd_sc_hd__tapvpwrvgnd_1
XTAP_114 VGND VPWR sky130_fd_sc_hd__tapvpwrvgnd_1
XTAP_103 VGND VPWR sky130_fd_sc_hd__tapvpwrvgnd_1
XFILLER_0_4_141 VPWR VGND VPWR VGND sky130_ef_sc_hd__decap_12
XFILLER_0_7_51 VGND VGND VPWR VPWR sky130_fd_sc_hd__decap_4
XFILLER_0_1_111 VGND VGND VPWR VPWR sky130_fd_sc_hd__fill_1
XFILLER_0_24_97 VPWR VGND VPWR VGND sky130_ef_sc_hd__decap_12
XFILLER_0_24_53 VPWR VGND VPWR VGND sky130_ef_sc_hd__decap_12
X_63_ net2 _01_ VGND VGND VPWR VPWR state\[1\] sky130_fd_sc_hd__dfxtp_1
XFILLER_0_4_41 VPWR VGND VPWR VGND sky130_ef_sc_hd__decap_12
XFILLER_0_4_85 VPWR VGND VPWR VGND sky130_ef_sc_hd__decap_12
X_46_ state\[1\] state\[3\] VGND VGND VPWR VPWR _18_ sky130_fd_sc_hd__or2_1
XFILLER_0_10_77 VGND VGND VPWR VPWR sky130_fd_sc_hd__decap_6
XFILLER_0_27_161 VGND VGND VPWR VPWR sky130_fd_sc_hd__decap_6
XFILLER_0_24_153 VPWR VGND VPWR VGND sky130_ef_sc_hd__decap_12
X_29_ net1 VGND VGND VPWR VPWR _08_ sky130_fd_sc_hd__inv_2
XFILLER_0_21_189 VGND VGND VPWR VPWR sky130_fd_sc_hd__fill_1
XFILLER_0_21_167 VGND VGND VPWR VPWR sky130_fd_sc_hd__fill_1
XFILLER_0_16_43 VPWR VGND VPWR VGND sky130_ef_sc_hd__decap_12
XFILLER_0_8_139 VGND VGND VPWR VPWR sky130_fd_sc_hd__fill_1
XFILLER_0_12_189 VGND VGND VPWR VPWR sky130_fd_sc_hd__fill_1
XFILLER_0_7_161 VGND VGND VPWR VPWR sky130_fd_sc_hd__decap_6
XFILLER_0_27_97 VPWR VGND VPWR VGND sky130_ef_sc_hd__decap_12
XFILLER_0_27_53 VGND VGND VPWR VPWR sky130_fd_sc_hd__decap_3
XTAP_137 VGND VPWR sky130_fd_sc_hd__tapvpwrvgnd_1
XTAP_126 VGND VPWR sky130_fd_sc_hd__tapvpwrvgnd_1
XTAP_115 VGND VPWR sky130_fd_sc_hd__tapvpwrvgnd_1
XTAP_104 VGND VPWR sky130_fd_sc_hd__tapvpwrvgnd_1
XFILLER_0_4_153 VPWR VGND VPWR VGND sky130_ef_sc_hd__decap_12
XFILLER_0_13_55 VGND VGND VPWR VPWR sky130_fd_sc_hd__fill_1
XFILLER_0_1_189 VGND VGND VPWR VPWR sky130_fd_sc_hd__fill_1
XFILLER_0_1_167 VGND VGND VPWR VPWR sky130_fd_sc_hd__fill_1
XFILLER_0_24_65 VPWR VGND VPWR VGND sky130_ef_sc_hd__decap_12
X_62_ net2 _00_ VGND VGND VPWR VPWR state\[0\] sky130_fd_sc_hd__dfxtp_1
XFILLER_0_4_53 VPWR VGND VPWR VGND sky130_ef_sc_hd__decap_12
XFILLER_0_4_97 VPWR VGND VPWR VGND sky130_ef_sc_hd__decap_12
XFILLER_0_19_54 VGND VGND VPWR VPWR sky130_fd_sc_hd__fill_2
X_45_ _17_ VGND VGND VPWR VPWR net7 sky130_fd_sc_hd__clkbuf_1
XFILLER_0_24_165 VPWR VGND VPWR VGND sky130_ef_sc_hd__decap_12
XFILLER_0_24_121 VPWR VGND VPWR VGND sky130_ef_sc_hd__decap_12
XFILLER_0_21_99 VGND VGND VPWR VPWR sky130_fd_sc_hd__fill_2
XFILLER_0_21_55 VGND VGND VPWR VPWR sky130_fd_sc_hd__fill_1
XFILLER_0_1_54 VGND VGND VPWR VPWR sky130_fd_sc_hd__fill_2
XFILLER_0_1_10 VPWR VGND VPWR VGND sky130_ef_sc_hd__decap_12
XFILLER_0_15_110 VGND VGND VPWR VPWR sky130_fd_sc_hd__fill_2
XFILLER_0_21_113 VPWR VGND VPWR VGND sky130_ef_sc_hd__decap_12
XFILLER_0_16_55 VGND VGND VPWR VPWR sky130_fd_sc_hd__fill_2
XFILLER_0_25_3 VPWR VGND VPWR VGND sky130_ef_sc_hd__decap_12
XTAP_138 VGND VPWR sky130_fd_sc_hd__tapvpwrvgnd_1
XTAP_127 VGND VPWR sky130_fd_sc_hd__tapvpwrvgnd_1
XTAP_116 VGND VPWR sky130_fd_sc_hd__tapvpwrvgnd_1
XTAP_105 VGND VPWR sky130_fd_sc_hd__tapvpwrvgnd_1
XFILLER_0_4_121 VPWR VGND VPWR VGND sky130_ef_sc_hd__decap_12
XFILLER_0_4_165 VPWR VGND VPWR VGND sky130_ef_sc_hd__decap_12
XFILLER_0_1_113 VPWR VGND VPWR VGND sky130_ef_sc_hd__decap_12
XFILLER_0_0_9 VPWR VGND VPWR VGND sky130_ef_sc_hd__decap_12
XFILLER_0_24_77 VGND VGND VPWR VPWR sky130_fd_sc_hd__decap_6
X_61_ delay\[2\] _24_ _28_ VGND VGND VPWR VPWR _07_ sky130_fd_sc_hd__a21oi_1
XFILLER_0_4_65 VPWR VGND VPWR VGND sky130_ef_sc_hd__decap_12
XFILLER_0_27_141 VGND VGND VPWR VPWR sky130_fd_sc_hd__fill_2
X_44_ state\[1\] VGND VGND VPWR VPWR _17_ sky130_fd_sc_hd__clkbuf_1
XFILLER_0_19_66 VPWR VGND VPWR VGND sky130_ef_sc_hd__decap_12
XFILLER_0_18_141 VPWR VGND VPWR VGND sky130_ef_sc_hd__decap_12
XFILLER_0_24_177 VPWR VGND VPWR VGND sky130_ef_sc_hd__decap_12
XFILLER_0_24_133 VGND VGND VPWR VPWR sky130_fd_sc_hd__decap_6
XFILLER_0_1_22 VPWR VGND VPWR VGND sky130_ef_sc_hd__decap_12
XFILLER_0_21_169 VPWR VGND VPWR VGND sky130_ef_sc_hd__decap_12
XFILLER_0_21_125 VPWR VGND VPWR VGND sky130_ef_sc_hd__decap_12
XFILLER_0_18_3 VPWR VGND VPWR VGND sky130_ef_sc_hd__decap_12
XTAP_139 VGND VPWR sky130_fd_sc_hd__tapvpwrvgnd_1
XTAP_128 VGND VPWR sky130_fd_sc_hd__tapvpwrvgnd_1
XTAP_117 VGND VPWR sky130_fd_sc_hd__tapvpwrvgnd_1
XTAP_106 VGND VPWR sky130_fd_sc_hd__tapvpwrvgnd_1
XPHY_0 VGND VGND VPWR VPWR sky130_fd_sc_hd__decap_3
XFILLER_0_4_133 VGND VGND VPWR VPWR sky130_fd_sc_hd__decap_6
XFILLER_0_4_177 VPWR VGND VPWR VGND sky130_ef_sc_hd__decap_12
XFILLER_0_7_3 VPWR VGND VPWR VGND sky130_ef_sc_hd__decap_12
XFILLER_0_1_169 VPWR VGND VPWR VGND sky130_ef_sc_hd__decap_12
XFILLER_0_1_125 VPWR VGND VPWR VGND sky130_ef_sc_hd__decap_12
XFILLER_0_13_57 VPWR VGND VPWR VGND sky130_ef_sc_hd__decap_12
X_60_ delay\[2\] _24_ _08_ VGND VGND VPWR VPWR _28_ sky130_fd_sc_hd__o21ai_1
XFILLER_0_4_77 VGND VGND VPWR VPWR sky130_fd_sc_hd__decap_6
X_43_ _16_ VGND VGND VPWR VPWR net6 sky130_fd_sc_hd__clkbuf_1
XFILLER_0_19_109 VGND VGND VPWR VPWR sky130_fd_sc_hd__decap_3
XFILLER_0_19_78 VPWR VGND VPWR VGND sky130_ef_sc_hd__decap_12
XFILLER_0_18_153 VPWR VGND VPWR VGND sky130_ef_sc_hd__decap_12
XFILLER_0_24_189 VGND VGND VPWR VPWR sky130_fd_sc_hd__fill_1
XFILLER_0_21_57 VGND VGND VPWR VPWR sky130_fd_sc_hd__fill_2
XFILLER_0_15_189 VGND VGND VPWR VPWR sky130_fd_sc_hd__fill_1
XFILLER_0_15_167 VGND VGND VPWR VPWR sky130_fd_sc_hd__fill_1
XFILLER_0_1_34 VPWR VGND VPWR VGND sky130_ef_sc_hd__decap_12
XFILLER_0_21_137 VPWR VGND VPWR VGND sky130_ef_sc_hd__decap_12
XFILLER_0_8_109 VPWR VGND VPWR VGND sky130_ef_sc_hd__decap_12
XFILLER_0_11_181 VGND VGND VPWR VPWR sky130_fd_sc_hd__decap_8
XFILLER_0_27_23 VGND VGND VPWR VPWR sky130_fd_sc_hd__decap_4
XTAP_129 VGND VPWR sky130_fd_sc_hd__tapvpwrvgnd_1
XTAP_118 VGND VPWR sky130_fd_sc_hd__tapvpwrvgnd_1
XTAP_107 VGND VPWR sky130_fd_sc_hd__tapvpwrvgnd_1
XPHY_1 VGND VGND VPWR VPWR sky130_fd_sc_hd__decap_3
XFILLER_0_4_189 VGND VGND VPWR VPWR sky130_fd_sc_hd__fill_1
XFILLER_0_7_55 VGND VGND VPWR VPWR sky130_fd_sc_hd__fill_1
XFILLER_0_1_137 VPWR VGND VPWR VGND sky130_ef_sc_hd__decap_12
XFILLER_0_13_69 VPWR VGND VPWR VGND sky130_ef_sc_hd__decap_12
XFILLER_0_0_181 VGND VGND VPWR VPWR sky130_fd_sc_hd__decap_6
X_42_ state\[4\] VGND VGND VPWR VPWR _16_ sky130_fd_sc_hd__clkbuf_1
XFILLER_0_19_46 VGND VGND VPWR VPWR sky130_fd_sc_hd__decap_3
XFILLER_0_10_15 VPWR VGND VPWR VGND sky130_ef_sc_hd__decap_12
XFILLER_0_18_165 VPWR VGND VPWR VGND sky130_ef_sc_hd__decap_12
XFILLER_0_18_121 VPWR VGND VPWR VGND sky130_ef_sc_hd__decap_12
XFILLER_0_15_113 VPWR VGND VPWR VGND sky130_ef_sc_hd__decap_12
XFILLER_0_1_57 VPWR VGND VPWR VGND sky130_ef_sc_hd__decap_12
XFILLER_0_1_46 VGND VGND VPWR VPWR sky130_fd_sc_hd__decap_8
XFILLER_0_21_149 VPWR VGND VPWR VGND sky130_ef_sc_hd__decap_12
XFILLER_0_27_57 VPWR VGND VPWR VGND sky130_ef_sc_hd__decap_12
XTAP_119 VGND VPWR sky130_fd_sc_hd__tapvpwrvgnd_1
XTAP_108 VGND VPWR sky130_fd_sc_hd__tapvpwrvgnd_1
XPHY_2 VGND VGND VPWR VPWR sky130_fd_sc_hd__decap_3
XFILLER_0_23_3 VPWR VGND VPWR VGND sky130_ef_sc_hd__decap_12
XFILLER_0_1_105 VGND VGND VPWR VPWR sky130_fd_sc_hd__decap_6
XFILLER_0_13_15 VPWR VGND VPWR VGND sky130_ef_sc_hd__decap_12
XFILLER_0_1_149 VPWR VGND VPWR VGND sky130_ef_sc_hd__decap_12
X_41_ state\[3\] _11_ _14_ state\[0\] VGND VGND VPWR VPWR _03_ sky130_fd_sc_hd__a22o_1
XFILLER_0_10_27 VGND VGND VPWR VPWR sky130_fd_sc_hd__fill_1
XFILLER_0_18_133 VGND VGND VPWR VPWR sky130_fd_sc_hd__decap_6
XFILLER_0_21_15 VPWR VGND VPWR VGND sky130_ef_sc_hd__decap_12
XFILLER_0_18_177 VPWR VGND VPWR VGND sky130_ef_sc_hd__decap_12
XFILLER_0_15_169 VPWR VGND VPWR VGND sky130_ef_sc_hd__decap_12
XFILLER_0_15_125 VPWR VGND VPWR VGND sky130_ef_sc_hd__decap_12
XFILLER_0_1_69 VPWR VGND VPWR VGND sky130_ef_sc_hd__decap_12
XFILLER_0_11_81 VPWR VGND VPWR VGND sky130_ef_sc_hd__decap_12
XFILLER_0_16_37 VGND VGND VPWR VPWR sky130_fd_sc_hd__decap_3
XFILLER_0_16_15 VPWR VGND VPWR VGND sky130_ef_sc_hd__decap_12
XFILLER_0_12_139 VGND VGND VPWR VPWR sky130_fd_sc_hd__fill_1
XFILLER_0_7_111 VGND VGND VPWR VPWR sky130_fd_sc_hd__fill_1
XFILLER_0_11_161 VGND VGND VPWR VPWR sky130_fd_sc_hd__decap_6
XFILLER_0_27_69 VPWR VGND VPWR VGND sky130_ef_sc_hd__decap_12
XTAP_109 VGND VPWR sky130_fd_sc_hd__tapvpwrvgnd_1
XFILLER_0_16_3 VPWR VGND VPWR VGND sky130_ef_sc_hd__decap_12
XPHY_3 VGND VGND VPWR VPWR sky130_fd_sc_hd__decap_3
XFILLER_0_7_57 VPWR VGND VPWR VGND sky130_ef_sc_hd__decap_12
XFILLER_0_13_27 VPWR VGND VPWR VGND sky130_ef_sc_hd__decap_12
XFILLER_0_24_15 VPWR VGND VPWR VGND sky130_ef_sc_hd__decap_12
XFILLER_0_5_3 VPWR VGND VPWR VGND sky130_ef_sc_hd__decap_12
X_40_ _09_ state\[0\] _10_ state\[1\] net1 VGND VGND VPWR VPWR _00_ sky130_fd_sc_hd__a221o_1
XFILLER_0_19_15 VPWR VGND VPWR VGND sky130_ef_sc_hd__decap_12
XFILLER_0_27_189 VGND VGND VPWR VPWR sky130_fd_sc_hd__fill_1
XFILLER_0_27_167 VGND VGND VPWR VPWR sky130_fd_sc_hd__fill_1
XFILLER_0_18_189 VGND VGND VPWR VPWR sky130_fd_sc_hd__fill_1
XFILLER_0_21_27 VPWR VGND VPWR VGND sky130_ef_sc_hd__decap_12
XFILLER_0_23_181 VGND VGND VPWR VPWR sky130_fd_sc_hd__decap_8
XFILLER_0_15_137 VPWR VGND VPWR VGND sky130_ef_sc_hd__decap_12
XFILLER_0_11_93 VPWR VGND VPWR VGND sky130_ef_sc_hd__decap_12
XFILLER_0_21_107 VGND VGND VPWR VPWR sky130_fd_sc_hd__decap_4
XFILLER_0_16_27 VGND VGND VPWR VPWR sky130_fd_sc_hd__fill_1
XFILLER_0_7_167 VGND VGND VPWR VPWR sky130_fd_sc_hd__fill_1
XFILLER_0_7_189 VGND VGND VPWR VPWR sky130_fd_sc_hd__fill_1
XFILLER_0_27_15 VGND VGND VPWR VPWR sky130_fd_sc_hd__fill_2
XPHY_4 VGND VGND VPWR VPWR sky130_fd_sc_hd__decap_3
XFILLER_0_7_69 VPWR VGND VPWR VGND sky130_ef_sc_hd__decap_12
XFILLER_0_3_181 VGND VGND VPWR VPWR sky130_fd_sc_hd__decap_8
XFILLER_0_13_39 VPWR VGND VPWR VGND sky130_ef_sc_hd__decap_12
XFILLER_0_24_27 VGND VGND VPWR VPWR sky130_fd_sc_hd__fill_1
XFILLER_0_4_15 VPWR VGND VPWR VGND sky130_ef_sc_hd__decap_12
XFILLER_0_19_27 VPWR VGND VPWR VGND sky130_ef_sc_hd__decap_12
XFILLER_0_10_29 VPWR VGND VPWR VGND sky130_ef_sc_hd__decap_12
XFILLER_0_27_113 VPWR VGND VPWR VGND sky130_ef_sc_hd__decap_12
XFILLER_0_25_81 VPWR VGND VPWR VGND sky130_ef_sc_hd__decap_12
XFILLER_0_21_39 VPWR VGND VPWR VGND sky130_ef_sc_hd__decap_12
XFILLER_0_15_149 VPWR VGND VPWR VGND sky130_ef_sc_hd__decap_12
XFILLER_0_20_141 VPWR VGND VPWR VGND sky130_ef_sc_hd__decap_12
XFILLER_0_7_113 VPWR VGND VPWR VGND sky130_ef_sc_hd__decap_12
XFILLER_0_27_27 VGND VGND VPWR VPWR sky130_fd_sc_hd__fill_1
XPHY_5 VGND VGND VPWR VPWR sky130_fd_sc_hd__decap_3
XFILLER_0_7_15 VPWR VGND VPWR VGND sky130_ef_sc_hd__decap_12
XFILLER_0_21_3 VPWR VGND VPWR VGND sky130_ef_sc_hd__decap_12
XFILLER_0_0_141 VPWR VGND VPWR VGND sky130_ef_sc_hd__decap_12
XFILLER_0_4_27 VGND VGND VPWR VPWR sky130_fd_sc_hd__fill_1
XFILLER_0_27_169 VPWR VGND VPWR VGND sky130_ef_sc_hd__decap_12
XFILLER_0_27_125 VPWR VGND VPWR VGND sky130_ef_sc_hd__decap_12
XFILLER_0_19_39 VGND VGND VPWR VPWR sky130_fd_sc_hd__decap_3
XFILLER_0_25_93 VPWR VGND VPWR VGND sky130_ef_sc_hd__decap_12
XFILLER_0_24_139 VGND VGND VPWR VPWR sky130_fd_sc_hd__fill_1
XFILLER_0_5_81 VPWR VGND VPWR VGND sky130_ef_sc_hd__decap_12
XFILLER_0_11_51 VGND VGND VPWR VPWR sky130_fd_sc_hd__decap_4
XFILLER_0_16_29 VGND VGND VPWR VPWR sky130_fd_sc_hd__decap_8
XFILLER_0_20_153 VPWR VGND VPWR VGND sky130_ef_sc_hd__decap_12
XFILLER_0_12_109 VPWR VGND VPWR VGND sky130_ef_sc_hd__decap_12
XFILLER_0_22_83 VGND VGND VPWR VPWR sky130_fd_sc_hd__fill_1
XFILLER_0_7_125 VPWR VGND VPWR VGND sky130_ef_sc_hd__decap_12
XFILLER_0_7_169 VPWR VGND VPWR VGND sky130_ef_sc_hd__decap_12
XPHY_6 VGND VGND VPWR VPWR sky130_fd_sc_hd__decap_3
XFILLER_0_4_139 VGND VGND VPWR VPWR sky130_fd_sc_hd__fill_1
XFILLER_0_7_27 VPWR VGND VPWR VGND sky130_ef_sc_hd__decap_12
XFILLER_0_17_83 VGND VGND VPWR VPWR sky130_fd_sc_hd__decap_8
XFILLER_0_3_161 VGND VGND VPWR VPWR sky130_fd_sc_hd__decap_6
XFILLER_0_0_153 VPWR VGND VPWR VGND sky130_ef_sc_hd__decap_12
XFILLER_0_14_3 VPWR VGND VPWR VGND sky130_ef_sc_hd__decap_12
XFILLER_0_24_29 VPWR VGND VPWR VGND sky130_ef_sc_hd__decap_12
XFILLER_0_27_137 VGND VGND VPWR VPWR sky130_fd_sc_hd__decap_3
XFILLER_0_3_3 VPWR VGND VPWR VGND sky130_ef_sc_hd__decap_12
XFILLER_0_18_115 VGND VGND VPWR VPWR sky130_fd_sc_hd__decap_3
XFILLER_0_17_181 VGND VGND VPWR VPWR sky130_fd_sc_hd__decap_8
XFILLER_0_5_93 VPWR VGND VPWR VGND sky130_ef_sc_hd__decap_12
Xinput1 clear VGND VGND VPWR VPWR net1 sky130_fd_sc_hd__clkbuf_2
XTAP_90 VGND VPWR sky130_fd_sc_hd__tapvpwrvgnd_1
XFILLER_0_20_165 VPWR VGND VPWR VGND sky130_ef_sc_hd__decap_12
XFILLER_0_2_83 VGND VGND VPWR VPWR sky130_fd_sc_hd__fill_1
XFILLER_0_7_137 VPWR VGND VPWR VGND sky130_ef_sc_hd__decap_12
XFILLER_0_27_29 VPWR VGND VPWR VGND sky130_ef_sc_hd__decap_12
XPHY_7 VGND VGND VPWR VPWR sky130_fd_sc_hd__decap_3
XFILLER_0_7_39 VPWR VGND VPWR VGND sky130_ef_sc_hd__decap_12
XFILLER_0_0_165 VGND VGND VPWR VPWR sky130_fd_sc_hd__decap_3
XFILLER_0_4_29 VPWR VGND VPWR VGND sky130_ef_sc_hd__decap_12
XFILLER_0_14_41 VPWR VGND VPWR VGND sky130_ef_sc_hd__decap_12
XFILLER_0_14_85 VPWR VGND VPWR VGND sky130_ef_sc_hd__decap_12
XFILLER_0_27_149 VPWR VGND VPWR VGND sky130_ef_sc_hd__decap_12
XFILLER_0_25_51 VGND VGND VPWR VPWR sky130_fd_sc_hd__decap_4
Xinput2 clock VGND VGND VPWR VPWR net2 sky130_fd_sc_hd__clkbuf_2
XTAP_80 VGND VPWR sky130_fd_sc_hd__tapvpwrvgnd_1
XTAP_91 VGND VPWR sky130_fd_sc_hd__tapvpwrvgnd_1
XFILLER_0_14_141 VPWR VGND VPWR VGND sky130_ef_sc_hd__decap_12
XFILLER_0_20_177 VPWR VGND VPWR VGND sky130_ef_sc_hd__decap_12
XFILLER_0_22_85 VGND VGND VPWR VPWR sky130_fd_sc_hd__decap_8
XFILLER_0_22_41 VPWR VGND VPWR VGND sky130_ef_sc_hd__decap_12
XFILLER_0_7_105 VGND VGND VPWR VPWR sky130_fd_sc_hd__decap_6
XFILLER_0_7_149 VPWR VGND VPWR VGND sky130_ef_sc_hd__decap_12
XFILLER_0_11_111 VGND VGND VPWR VPWR sky130_fd_sc_hd__fill_1
XPHY_8 VGND VGND VPWR VPWR sky130_fd_sc_hd__decap_3
XFILLER_0_8_83 VGND VGND VPWR VPWR sky130_fd_sc_hd__fill_1
XFILLER_0_14_53 VGND VGND VPWR VPWR sky130_fd_sc_hd__decap_6
XFILLER_0_14_97 VPWR VGND VPWR VGND sky130_ef_sc_hd__decap_12
XFILLER_0_18_139 VGND VGND VPWR VPWR sky130_fd_sc_hd__fill_1
XFILLER_0_5_51 VGND VGND VPWR VPWR sky130_fd_sc_hd__decap_4
XFILLER_0_24_109 VPWR VGND VPWR VGND sky130_ef_sc_hd__decap_12
XFILLER_0_23_131 VGND VGND VPWR VPWR sky130_fd_sc_hd__fill_1
Xinput3 x VGND VGND VPWR VPWR net3 sky130_fd_sc_hd__buf_1
XTAP_70 VGND VPWR sky130_fd_sc_hd__tapvpwrvgnd_1
XTAP_81 VGND VPWR sky130_fd_sc_hd__tapvpwrvgnd_1
XTAP_92 VGND VPWR sky130_fd_sc_hd__tapvpwrvgnd_1
XFILLER_0_14_153 VPWR VGND VPWR VGND sky130_ef_sc_hd__decap_12
XFILLER_0_22_53 VPWR VGND VPWR VGND sky130_ef_sc_hd__decap_12
XFILLER_0_20_189 VGND VGND VPWR VPWR sky130_fd_sc_hd__fill_1
XFILLER_0_11_167 VGND VGND VPWR VPWR sky130_fd_sc_hd__fill_1
XFILLER_0_11_189 VGND VGND VPWR VPWR sky130_fd_sc_hd__fill_1
XFILLER_0_2_85 VPWR VGND VPWR VGND sky130_ef_sc_hd__decap_12
XFILLER_0_2_41 VPWR VGND VPWR VGND sky130_ef_sc_hd__decap_12
XFILLER_0_4_109 VPWR VGND VPWR VGND sky130_ef_sc_hd__decap_12
XPHY_9 VGND VGND VPWR VPWR sky130_fd_sc_hd__decap_3
XFILLER_0_17_75 VGND VGND VPWR VPWR sky130_fd_sc_hd__fill_1
XFILLER_0_14_76 VGND VGND VPWR VPWR sky130_fd_sc_hd__decap_8
XFILLER_0_12_3 VPWR VGND VPWR VGND sky130_ef_sc_hd__decap_12
XFILLER_0_18_107 VGND VGND VPWR VPWR sky130_fd_sc_hd__decap_8
XFILLER_0_1_3 VGND VGND VPWR VPWR sky130_fd_sc_hd__decap_4
XTAP_60 VGND VPWR sky130_fd_sc_hd__tapvpwrvgnd_1
XTAP_71 VGND VPWR sky130_fd_sc_hd__tapvpwrvgnd_1
XTAP_82 VGND VPWR sky130_fd_sc_hd__tapvpwrvgnd_1
XFILLER_0_11_55 VGND VGND VPWR VPWR sky130_fd_sc_hd__fill_1
XTAP_93 VGND VPWR sky130_fd_sc_hd__tapvpwrvgnd_1
XFILLER_0_9_181 VGND VGND VPWR VPWR sky130_fd_sc_hd__decap_8
XFILLER_0_14_121 VPWR VGND VPWR VGND sky130_ef_sc_hd__decap_12
XFILLER_0_14_165 VPWR VGND VPWR VGND sky130_ef_sc_hd__decap_12
XFILLER_0_22_65 VPWR VGND VPWR VGND sky130_ef_sc_hd__decap_12
XFILLER_0_2_97 VPWR VGND VPWR VGND sky130_ef_sc_hd__decap_12
XFILLER_0_2_53 VPWR VGND VPWR VGND sky130_ef_sc_hd__decap_12
XFILLER_0_11_113 VPWR VGND VPWR VGND sky130_ef_sc_hd__decap_12
XFILLER_0_17_21 VPWR VGND VPWR VGND sky130_ef_sc_hd__decap_12
XFILLER_0_0_113 VPWR VGND VPWR VGND sky130_ef_sc_hd__decap_12
XFILLER_0_8_41 VPWR VGND VPWR VGND sky130_ef_sc_hd__decap_12
XFILLER_0_8_85 VPWR VGND VPWR VGND sky130_ef_sc_hd__decap_12
XFILLER_0_26_141 VPWR VGND VPWR VGND sky130_ef_sc_hd__decap_12
XFILLER_0_17_130 VPWR VGND VPWR VGND sky130_ef_sc_hd__decap_12
XFILLER_0_23_111 VGND VGND VPWR VPWR sky130_fd_sc_hd__fill_1
XTAP_61 VGND VPWR sky130_fd_sc_hd__tapvpwrvgnd_1
XTAP_72 VGND VPWR sky130_fd_sc_hd__tapvpwrvgnd_1
XTAP_83 VGND VPWR sky130_fd_sc_hd__tapvpwrvgnd_1
XTAP_94 VGND VPWR sky130_fd_sc_hd__tapvpwrvgnd_1
XFILLER_0_14_133 VGND VGND VPWR VPWR sky130_fd_sc_hd__decap_6
XFILLER_0_14_177 VPWR VGND VPWR VGND sky130_ef_sc_hd__decap_12
XFILLER_0_20_125 VPWR VGND VPWR VGND sky130_ef_sc_hd__decap_12
XFILLER_0_22_77 VGND VGND VPWR VPWR sky130_fd_sc_hd__decap_6
X_59_ _27_ VGND VGND VPWR VPWR _06_ sky130_fd_sc_hd__clkbuf_1
XFILLER_0_2_65 VPWR VGND VPWR VGND sky130_ef_sc_hd__decap_12
XFILLER_0_6_141 VPWR VGND VPWR VGND sky130_ef_sc_hd__decap_12
XFILLER_0_11_125 VPWR VGND VPWR VGND sky130_ef_sc_hd__decap_12
XFILLER_0_11_169 VPWR VGND VPWR VGND sky130_ef_sc_hd__decap_12
XFILLER_0_17_99 VPWR VGND VPWR VGND sky130_ef_sc_hd__decap_12
XFILLER_0_17_33 VPWR VGND VPWR VGND sky130_ef_sc_hd__decap_12
XFILLER_0_3_111 VGND VGND VPWR VPWR sky130_fd_sc_hd__fill_1
XFILLER_0_0_169 VPWR VGND VPWR VGND sky130_ef_sc_hd__decap_12
XFILLER_0_0_125 VPWR VGND VPWR VGND sky130_ef_sc_hd__decap_12
XFILLER_0_8_53 VPWR VGND VPWR VGND sky130_ef_sc_hd__decap_12
XFILLER_0_8_97 VPWR VGND VPWR VGND sky130_ef_sc_hd__decap_12
XFILLER_0_27_109 VGND VGND VPWR VPWR sky130_fd_sc_hd__decap_3
XFILLER_0_26_153 VPWR VGND VPWR VGND sky130_ef_sc_hd__decap_12
XFILLER_0_25_55 VGND VGND VPWR VPWR sky130_fd_sc_hd__fill_1
XFILLER_0_17_142 VPWR VGND VPWR VGND sky130_ef_sc_hd__decap_12
XFILLER_0_23_189 VGND VGND VPWR VPWR sky130_fd_sc_hd__fill_1
XFILLER_0_23_167 VGND VGND VPWR VPWR sky130_fd_sc_hd__fill_1
XFILLER_0_11_57 VPWR VGND VPWR VGND sky130_ef_sc_hd__decap_12
XFILLER_0_14_189 VGND VGND VPWR VPWR sky130_fd_sc_hd__fill_1
XTAP_62 VGND VPWR sky130_fd_sc_hd__tapvpwrvgnd_1
XTAP_73 VGND VPWR sky130_fd_sc_hd__tapvpwrvgnd_1
XTAP_84 VGND VPWR sky130_fd_sc_hd__tapvpwrvgnd_1
XTAP_95 VGND VPWR sky130_fd_sc_hd__tapvpwrvgnd_1
XFILLER_0_20_137 VGND VGND VPWR VPWR sky130_fd_sc_hd__decap_3
XFILLER_0_9_161 VGND VGND VPWR VPWR sky130_fd_sc_hd__decap_6
XFILLER_0_22_23 VGND VGND VPWR VPWR sky130_fd_sc_hd__fill_2
X_58_ _24_ _22_ _25_ _26_ VGND VGND VPWR VPWR _27_ sky130_fd_sc_hd__and4b_1
XFILLER_0_2_77 VGND VGND VPWR VPWR sky130_fd_sc_hd__decap_6
XFILLER_0_11_137 VPWR VGND VPWR VGND sky130_ef_sc_hd__decap_12
XFILLER_0_6_153 VPWR VGND VPWR VGND sky130_ef_sc_hd__decap_12
XFILLER_0_17_67 VGND VGND VPWR VPWR sky130_fd_sc_hd__decap_8
XFILLER_0_17_45 VGND VGND VPWR VPWR sky130_fd_sc_hd__decap_4
XFILLER_0_3_167 VGND VGND VPWR VPWR sky130_fd_sc_hd__fill_1
XFILLER_0_3_189 VGND VGND VPWR VPWR sky130_fd_sc_hd__fill_1
XFILLER_0_0_137 VGND VGND VPWR VPWR sky130_fd_sc_hd__decap_3
XFILLER_0_8_65 VPWR VGND VPWR VGND sky130_ef_sc_hd__decap_12
XFILLER_0_26_121 VPWR VGND VPWR VGND sky130_ef_sc_hd__decap_12
XFILLER_0_26_165 VPWR VGND VPWR VGND sky130_ef_sc_hd__decap_12
XFILLER_0_17_154 VPWR VGND VPWR VGND sky130_ef_sc_hd__decap_12
XFILLER_0_5_55 VGND VGND VPWR VPWR sky130_fd_sc_hd__fill_1
XFILLER_0_10_3 VPWR VGND VPWR VGND sky130_ef_sc_hd__decap_12
XFILLER_0_23_135 VPWR VGND VPWR VGND sky130_ef_sc_hd__decap_12
XFILLER_0_23_113 VPWR VGND VPWR VGND sky130_ef_sc_hd__decap_12
XFILLER_0_11_69 VPWR VGND VPWR VGND sky130_ef_sc_hd__decap_12
XTAP_63 VGND VPWR sky130_fd_sc_hd__tapvpwrvgnd_1
XTAP_74 VGND VPWR sky130_fd_sc_hd__tapvpwrvgnd_1
XTAP_85 VGND VPWR sky130_fd_sc_hd__tapvpwrvgnd_1
XTAP_96 VGND VPWR sky130_fd_sc_hd__tapvpwrvgnd_1
XFILLER_0_11_105 VGND VGND VPWR VPWR sky130_fd_sc_hd__decap_6
XFILLER_0_11_149 VPWR VGND VPWR VGND sky130_ef_sc_hd__decap_12
X_57_ delay\[1\] _20_ VGND VGND VPWR VPWR _26_ sky130_fd_sc_hd__or2_1
XFILLER_0_6_121 VPWR VGND VPWR VGND sky130_ef_sc_hd__decap_12
XFILLER_0_6_165 VPWR VGND VPWR VGND sky130_ef_sc_hd__decap_12
XFILLER_0_17_57 VGND VGND VPWR VPWR sky130_fd_sc_hd__fill_2
XFILLER_0_3_113 VPWR VGND VPWR VGND sky130_ef_sc_hd__decap_12
XFILLER_0_0_105 VGND VGND VPWR VPWR sky130_fd_sc_hd__decap_3
XFILLER_0_8_77 VGND VGND VPWR VPWR sky130_fd_sc_hd__decap_6
XFILLER_0_25_57 VPWR VGND VPWR VGND sky130_ef_sc_hd__decap_12
XFILLER_0_26_177 VPWR VGND VPWR VGND sky130_ef_sc_hd__decap_12
XFILLER_0_26_133 VGND VGND VPWR VPWR sky130_fd_sc_hd__decap_6
XFILLER_0_17_166 VGND VGND VPWR VPWR sky130_fd_sc_hd__fill_2
XFILLER_0_17_111 VGND VGND VPWR VPWR sky130_fd_sc_hd__fill_1
XFILLER_0_11_15 VPWR VGND VPWR VGND sky130_ef_sc_hd__decap_12
XFILLER_0_23_169 VPWR VGND VPWR VGND sky130_ef_sc_hd__decap_12
XFILLER_0_23_147 VPWR VGND VPWR VGND sky130_ef_sc_hd__decap_12
XFILLER_0_23_125 VGND VGND VPWR VPWR sky130_fd_sc_hd__decap_6
XTAP_64 VGND VPWR sky130_fd_sc_hd__tapvpwrvgnd_1
XTAP_75 VGND VPWR sky130_fd_sc_hd__tapvpwrvgnd_1
XTAP_86 VGND VPWR sky130_fd_sc_hd__tapvpwrvgnd_1
XTAP_97 VGND VPWR sky130_fd_sc_hd__tapvpwrvgnd_1
X_56_ state\[1\] state\[3\] _15_ state\[2\] VGND VGND VPWR VPWR _25_ sky130_fd_sc_hd__or4b_1
XFILLER_0_6_133 VGND VGND VPWR VPWR sky130_fd_sc_hd__decap_6
XFILLER_0_6_177 VPWR VGND VPWR VGND sky130_ef_sc_hd__decap_12
X_39_ _08_ state\[3\] _10_ _15_ _13_ VGND VGND VPWR VPWR _02_ sky130_fd_sc_hd__a32o_1
XFILLER_0_3_125 VPWR VGND VPWR VGND sky130_ef_sc_hd__decap_12
XFILLER_0_3_169 VPWR VGND VPWR VGND sky130_ef_sc_hd__decap_12
XFILLER_0_14_15 VPWR VGND VPWR VGND sky130_ef_sc_hd__decap_12
XFILLER_0_14_59 VGND VGND VPWR VPWR sky130_fd_sc_hd__fill_1